<?xml version="1.0" encoding="UTF-8"?>

<!-- generated on 2023-12-04 17:04:10 by Eclipse SUMO netedit Version 1.19.0
<configuration xmlns:xsi="http://www.w3.org/2001/XMLSchema-instance" xsi:noNamespaceSchemaLocation="http://sumo.dlr.de/xsd/neteditConfiguration.xsd">

    <input>
        <sumo-net-file value="C:\Users\hanme\meam-517-final\DoubleIntersection.net.xml"/>
    </input>

    <output>
        <output-file value="C:\Users\hanme\meam-517-final\DoubleIntersection.net.xml"/>
    </output>

    <processing>
        <geometry.min-radius.fix.railways value="false"/>
        <geometry.max-grade.fix value="false"/>
        <offset.disable-normalization value="true"/>
        <lefthand value="0"/>
    </processing>

    <junctions>
        <no-turnarounds value="true"/>
        <junctions.corner-detail value="5"/>
        <junctions.limit-turn-speed value="5.50"/>
        <rectangular-lane-cut value="0"/>
    </junctions>

    <pedestrian>
        <walkingareas value="0"/>
    </pedestrian>

</configuration>
-->

<net version="1.16" junctionCornerDetail="5" limitTurnSpeed="5.50" xmlns:xsi="http://www.w3.org/2001/XMLSchema-instance" xsi:noNamespaceSchemaLocation="http://sumo.dlr.de/xsd/net_file.xsd">

    <location netOffset="0.00,0.00" convBoundary="-100.00,100.00,200.00,300.00" origBoundary="-10000000000.00,-10000000000.00,10000000000.00,10000000000.00" projParameter="!"/>

    <edge id=":J1_0" function="internal">
        <lane id=":J1_0_0" index="0" disallow="pedestrian" speed="6.51" length="9.03" shape="-1.60,207.20 -1.95,204.75 -3.00,203.00 -4.75,201.95 -7.20,201.60"/>
    </edge>
    <edge id=":J1_1" function="internal">
        <lane id=":J1_1_0" index="0" disallow="pedestrian" speed="13.89" length="14.40" shape="-1.60,207.20 -1.60,192.80"/>
    </edge>
    <edge id=":J1_2" function="internal">
        <lane id=":J1_2_0" index="0" disallow="pedestrian" speed="8.00" length="4.07" shape="-1.60,207.20 -1.05,203.35 -0.96,203.20"/>
    </edge>
    <edge id=":J1_12" function="internal">
        <lane id=":J1_12_0" index="0" disallow="pedestrian" speed="8.00" length="10.13" shape="-0.96,203.20 0.60,200.60 3.35,198.95 7.20,198.40"/>
    </edge>
    <edge id=":J1_3" function="internal">
        <lane id=":J1_3_0" index="0" disallow="pedestrian" speed="6.51" length="9.03" shape="7.20,201.60 4.75,201.95 3.00,203.00 1.95,204.75 1.60,207.20"/>
    </edge>
    <edge id=":J1_4" function="internal">
        <lane id=":J1_4_0" index="0" disallow="pedestrian" speed="13.89" length="14.40" shape="7.20,201.60 -7.20,201.60"/>
    </edge>
    <edge id=":J1_5" function="internal">
        <lane id=":J1_5_0" index="0" disallow="pedestrian" speed="8.00" length="4.07" shape="7.20,201.60 3.35,201.05 3.20,200.96"/>
    </edge>
    <edge id=":J1_13" function="internal">
        <lane id=":J1_13_0" index="0" disallow="pedestrian" speed="8.00" length="10.13" shape="3.20,200.96 0.60,199.40 -1.05,196.65 -1.60,192.80"/>
    </edge>
    <edge id=":J1_6" function="internal">
        <lane id=":J1_6_0" index="0" disallow="pedestrian" speed="6.51" length="9.03" shape="1.60,192.80 1.95,195.25 3.00,197.00 4.75,198.05 7.20,198.40"/>
    </edge>
    <edge id=":J1_7" function="internal">
        <lane id=":J1_7_0" index="0" disallow="pedestrian" speed="13.89" length="14.40" shape="1.60,192.80 1.60,207.20"/>
    </edge>
    <edge id=":J1_8" function="internal">
        <lane id=":J1_8_0" index="0" disallow="pedestrian" speed="8.00" length="4.07" shape="1.60,192.80 1.05,196.65 0.96,196.80"/>
    </edge>
    <edge id=":J1_14" function="internal">
        <lane id=":J1_14_0" index="0" disallow="pedestrian" speed="8.00" length="10.13" shape="0.96,196.80 -0.60,199.40 -3.35,201.05 -7.20,201.60"/>
    </edge>
    <edge id=":J1_9" function="internal">
        <lane id=":J1_9_0" index="0" disallow="pedestrian" speed="6.51" length="9.03" shape="-7.20,198.40 -4.75,198.05 -3.00,197.00 -1.95,195.25 -1.60,192.80"/>
    </edge>
    <edge id=":J1_10" function="internal">
        <lane id=":J1_10_0" index="0" disallow="pedestrian" speed="13.89" length="14.40" shape="-7.20,198.40 7.20,198.40"/>
    </edge>
    <edge id=":J1_11" function="internal">
        <lane id=":J1_11_0" index="0" disallow="pedestrian" speed="8.00" length="4.07" shape="-7.20,198.40 -3.35,198.95 -3.20,199.04"/>
    </edge>
    <edge id=":J1_15" function="internal">
        <lane id=":J1_15_0" index="0" disallow="pedestrian" speed="8.00" length="10.13" shape="-3.20,199.04 -0.60,200.60 1.05,203.35 1.60,207.20"/>
    </edge>
    <edge id=":J2_0" function="internal">
        <lane id=":J2_0_0" index="0" disallow="pedestrian" speed="6.51" length="9.03" shape="98.40,207.20 98.05,204.75 97.00,203.00 95.25,201.95 92.80,201.60"/>
    </edge>
    <edge id=":J2_1" function="internal">
        <lane id=":J2_1_0" index="0" speed="13.89" length="14.40" shape="98.40,207.20 98.40,192.80"/>
    </edge>
    <edge id=":J2_2" function="internal">
        <lane id=":J2_2_0" index="0" speed="8.00" length="4.07" shape="98.40,207.20 98.95,203.35 99.04,203.20"/>
    </edge>
    <edge id=":J2_12" function="internal">
        <lane id=":J2_12_0" index="0" speed="8.00" length="10.13" shape="99.04,203.20 100.60,200.60 103.35,198.95 107.20,198.40"/>
    </edge>
    <edge id=":J2_3" function="internal">
        <lane id=":J2_3_0" index="0" speed="6.51" length="9.03" shape="107.20,201.60 104.75,201.95 103.00,203.00 101.95,204.75 101.60,207.20"/>
    </edge>
    <edge id=":J2_4" function="internal">
        <lane id=":J2_4_0" index="0" disallow="pedestrian" speed="13.89" length="14.40" shape="107.20,201.60 92.80,201.60"/>
    </edge>
    <edge id=":J2_5" function="internal">
        <lane id=":J2_5_0" index="0" speed="8.00" length="4.07" shape="107.20,201.60 103.35,201.05 103.20,200.96"/>
    </edge>
    <edge id=":J2_13" function="internal">
        <lane id=":J2_13_0" index="0" speed="8.00" length="10.13" shape="103.20,200.96 100.60,199.40 98.95,196.65 98.40,192.80"/>
    </edge>
    <edge id=":J2_6" function="internal">
        <lane id=":J2_6_0" index="0" speed="6.51" length="9.03" shape="101.60,192.80 101.95,195.25 103.00,197.00 104.75,198.05 107.20,198.40"/>
    </edge>
    <edge id=":J2_7" function="internal">
        <lane id=":J2_7_0" index="0" speed="13.89" length="14.40" shape="101.60,192.80 101.60,207.20"/>
    </edge>
    <edge id=":J2_8" function="internal">
        <lane id=":J2_8_0" index="0" disallow="pedestrian" speed="8.00" length="4.07" shape="101.60,192.80 101.05,196.65 100.96,196.80"/>
    </edge>
    <edge id=":J2_14" function="internal">
        <lane id=":J2_14_0" index="0" disallow="pedestrian" speed="8.00" length="10.13" shape="100.96,196.80 99.40,199.40 96.65,201.05 92.80,201.60"/>
    </edge>
    <edge id=":J2_9" function="internal">
        <lane id=":J2_9_0" index="0" disallow="pedestrian" speed="6.51" length="9.03" shape="92.80,198.40 95.25,198.05 97.00,197.00 98.05,195.25 98.40,192.80"/>
    </edge>
    <edge id=":J2_10" function="internal">
        <lane id=":J2_10_0" index="0" disallow="pedestrian" speed="13.89" length="14.40" shape="92.80,198.40 107.20,198.40"/>
    </edge>
    <edge id=":J2_11" function="internal">
        <lane id=":J2_11_0" index="0" disallow="pedestrian" speed="8.00" length="4.07" shape="92.80,198.40 96.65,198.95 96.80,199.04"/>
    </edge>
    <edge id=":J2_15" function="internal">
        <lane id=":J2_15_0" index="0" disallow="pedestrian" speed="8.00" length="10.13" shape="96.80,199.04 99.40,200.60 101.05,203.35 101.60,207.20"/>
    </edge>

    <edge id="-E1" from="J1" to="J3" priority="-1">
        <lane id="-E1_0" index="0" disallow="pedestrian" speed="13.89" length="92.80" shape="-7.20,201.60 -100.00,201.60"/>
    </edge>
    <edge id="-E2" from="J2" to="J1" priority="-1">
        <lane id="-E2_0" index="0" disallow="pedestrian" speed="13.89" length="85.60" shape="92.80,201.60 7.20,201.60"/>
    </edge>
    <edge id="-E3" from="J6" to="J2" priority="-1">
        <lane id="-E3_0" index="0" speed="13.89" length="92.80" shape="200.00,201.60 107.20,201.60"/>
    </edge>
    <edge id="-E4" from="J1" to="J4" priority="-1">
        <lane id="-E4_0" index="0" disallow="pedestrian" speed="13.89" length="92.80" shape="1.60,207.20 1.60,300.00"/>
    </edge>
    <edge id="-E5" from="J1" to="J8" priority="-1">
        <lane id="-E5_0" index="0" disallow="pedestrian" speed="13.89" length="92.80" shape="-1.60,192.80 -1.60,100.00"/>
    </edge>
    <edge id="-E6" from="J0" to="J2" priority="-1">
        <lane id="-E6_0" index="0" speed="13.89" length="92.80" shape="98.40,300.00 98.40,207.20"/>
    </edge>
    <edge id="-E7" from="J7" to="J2" priority="-1">
        <lane id="-E7_0" index="0" speed="13.89" length="92.80" shape="101.60,100.00 101.60,192.80"/>
    </edge>
    <edge id="E1" from="J3" to="J1" priority="-1">
        <lane id="E1_0" index="0" disallow="pedestrian" speed="13.89" length="92.80" shape="-100.00,198.40 -7.20,198.40"/>
    </edge>
    <edge id="E2" from="J1" to="J2" priority="-1">
        <lane id="E2_0" index="0" disallow="pedestrian" speed="13.89" length="85.60" shape="7.20,198.40 92.80,198.40"/>
    </edge>
    <edge id="E3" from="J2" to="J6" priority="-1">
        <lane id="E3_0" index="0" speed="13.89" length="92.80" shape="107.20,198.40 200.00,198.40"/>
    </edge>
    <edge id="E4" from="J4" to="J1" priority="-1">
        <lane id="E4_0" index="0" disallow="pedestrian" speed="13.89" length="92.80" shape="-1.60,300.00 -1.60,207.20"/>
    </edge>
    <edge id="E5" from="J8" to="J1" priority="-1">
        <lane id="E5_0" index="0" disallow="pedestrian" speed="13.89" length="92.80" shape="1.60,100.00 1.60,192.80"/>
    </edge>
    <edge id="E6" from="J2" to="J0" priority="-1">
        <lane id="E6_0" index="0" speed="13.89" length="92.80" shape="101.60,207.20 101.60,300.00"/>
    </edge>
    <edge id="E7" from="J2" to="J7" priority="-1">
        <lane id="E7_0" index="0" speed="13.89" length="92.80" shape="98.40,192.80 98.40,100.00"/>
    </edge>

    <tlLogic id="J37" type="static" programID="0" offset="0">
        <phase duration="42" state="GGgrrrGGgrrr"/>
        <phase duration="3"  state="yyyrrryyyrrr"/>
        <phase duration="42" state="rrrGGgrrrGGg"/>
        <phase duration="3"  state="rrryyyrrryyy"/>
    </tlLogic>
    <tlLogic id="J39" type="static" programID="0" offset="0">
        <phase duration="42" state="GGgrrrGGgrrr"/>
        <phase duration="3"  state="yyyrrryyyrrr"/>
        <phase duration="42" state="rrrGGgrrrGGg"/>
        <phase duration="3"  state="rrryyyrrryyy"/>
    </tlLogic>

    <junction id="J0" type="dead_end" x="100.00" y="300.00" incLanes="E6_0" intLanes="" shape="100.00,300.00 103.20,300.00 100.00,300.00"/>
    <junction id="J1" type="traffic_light" x="0.00" y="200.00" incLanes="E4_0 -E2_0 E5_0 E1_0" intLanes=":J1_0_0 :J1_1_0 :J1_12_0 :J1_3_0 :J1_4_0 :J1_13_0 :J1_6_0 :J1_7_0 :J1_14_0 :J1_9_0 :J1_10_0 :J1_15_0" shape="-3.20,207.20 3.20,207.20 3.64,204.98 4.20,204.20 4.98,203.64 5.98,203.31 7.20,203.20 7.20,196.80 4.98,196.36 4.20,195.80 3.64,195.02 3.31,194.02 3.20,192.80 -3.20,192.80 -3.64,195.02 -4.20,195.80 -4.98,196.36 -5.98,196.69 -7.20,196.80 -7.20,203.20 -4.98,203.64 -4.20,204.20 -3.64,204.98 -3.31,205.98">
        <request index="0"  response="000000000000" foes="000100010000" cont="0"/>
        <request index="1"  response="100000100000" foes="111100110000" cont="0"/>
        <request index="2"  response="100111100000" foes="110111110000" cont="1"/>
        <request index="3"  response="000010000000" foes="100010000000" cont="0"/>
        <request index="4"  response="000110000111" foes="100110000111" cont="0"/>
        <request index="5"  response="111110000110" foes="111110000110" cont="1"/>
        <request index="6"  response="000000000000" foes="010000000100" cont="0"/>
        <request index="7"  response="100000100000" foes="110000111100" cont="0"/>
        <request index="8"  response="100000100011" foes="110000110111" cont="1"/>
        <request index="9"  response="000000000010" foes="000000100010" cont="0"/>
        <request index="10" response="000111000110" foes="000111100110" cont="0"/>
        <request index="11" response="000110011110" foes="000110111110" cont="1"/>
    </junction>
    <junction id="J2" type="traffic_light" x="100.00" y="200.00" incLanes="-E6_0 -E3_0 -E7_0 E2_0" intLanes=":J2_0_0 :J2_1_0 :J2_12_0 :J2_3_0 :J2_4_0 :J2_13_0 :J2_6_0 :J2_7_0 :J2_14_0 :J2_9_0 :J2_10_0 :J2_15_0" shape="96.80,207.20 103.20,207.20 103.64,204.98 104.20,204.20 104.98,203.64 105.98,203.31 107.20,203.20 107.20,196.80 104.98,196.36 104.20,195.80 103.64,195.02 103.31,194.02 103.20,192.80 96.80,192.80 96.36,195.02 95.80,195.80 95.02,196.36 94.02,196.69 92.80,196.80 92.80,203.20 95.02,203.64 95.80,204.20 96.36,204.98 96.69,205.98">
        <request index="0"  response="000000000000" foes="000100010000" cont="0"/>
        <request index="1"  response="100000100000" foes="111100110000" cont="0"/>
        <request index="2"  response="100111100000" foes="110111110000" cont="1"/>
        <request index="3"  response="000010000000" foes="100010000000" cont="0"/>
        <request index="4"  response="000110000111" foes="100110000111" cont="0"/>
        <request index="5"  response="111110000110" foes="111110000110" cont="1"/>
        <request index="6"  response="000000000000" foes="010000000100" cont="0"/>
        <request index="7"  response="100000100000" foes="110000111100" cont="0"/>
        <request index="8"  response="100000100011" foes="110000110111" cont="1"/>
        <request index="9"  response="000000000010" foes="000000100010" cont="0"/>
        <request index="10" response="000111000110" foes="000111100110" cont="0"/>
        <request index="11" response="000110011110" foes="000110111110" cont="1"/>
    </junction>
    <junction id="J3" type="dead_end" x="-100.00" y="200.00" incLanes="-E1_0" intLanes="" shape="-100.00,200.00 -100.00,203.20 -100.00,200.00"/>
    <junction id="J4" type="dead_end" x="0.00" y="300.00" incLanes="-E4_0" intLanes="" shape="0.00,300.00 3.20,300.00 0.00,300.00"/>
    <junction id="J6" type="dead_end" x="200.00" y="200.00" incLanes="E3_0" intLanes="" shape="200.00,200.00 200.00,196.80 200.00,200.00"/>
    <junction id="J7" type="dead_end" x="100.00" y="100.00" incLanes="E7_0" intLanes="" shape="100.00,100.00 96.80,100.00 100.00,100.00"/>
    <junction id="J8" type="dead_end" x="0.00" y="100.00" incLanes="-E5_0" intLanes="" shape="0.00,100.00 -3.20,100.00 0.00,100.00"/>

    <junction id=":J1_12_0" type="internal" x="-0.96" y="203.20" incLanes=":J1_2_0 E5_0" intLanes=":J1_4_0 :J1_5_0 :J1_6_0 :J1_7_0 :J1_10_0 :J1_11_0"/>
    <junction id=":J1_13_0" type="internal" x="3.20" y="200.96" incLanes=":J1_5_0 E1_0" intLanes=":J1_1_0 :J1_2_0 :J1_7_0 :J1_8_0 :J1_9_0 :J1_10_0"/>
    <junction id=":J1_14_0" type="internal" x="0.96" y="196.80" incLanes=":J1_8_0 E4_0" intLanes=":J1_0_0 :J1_1_0 :J1_4_0 :J1_5_0 :J1_10_0 :J1_11_0"/>
    <junction id=":J1_15_0" type="internal" x="-3.20" y="199.04" incLanes=":J1_11_0 -E2_0" intLanes=":J1_1_0 :J1_2_0 :J1_3_0 :J1_4_0 :J1_7_0 :J1_8_0"/>
    <junction id=":J2_12_0" type="internal" x="99.04" y="203.20" incLanes=":J2_2_0 -E7_0" intLanes=":J2_4_0 :J2_5_0 :J2_6_0 :J2_7_0 :J2_10_0 :J2_11_0"/>
    <junction id=":J2_13_0" type="internal" x="103.20" y="200.96" incLanes=":J2_5_0 E2_0" intLanes=":J2_1_0 :J2_2_0 :J2_7_0 :J2_8_0 :J2_9_0 :J2_10_0"/>
    <junction id=":J2_14_0" type="internal" x="100.96" y="196.80" incLanes=":J2_8_0 -E6_0" intLanes=":J2_0_0 :J2_1_0 :J2_4_0 :J2_5_0 :J2_10_0 :J2_11_0"/>
    <junction id=":J2_15_0" type="internal" x="96.80" y="199.04" incLanes=":J2_11_0 -E3_0" intLanes=":J2_1_0 :J2_2_0 :J2_3_0 :J2_4_0 :J2_7_0 :J2_8_0"/>

    <connection from="-E2" to="-E4" fromLane="0" toLane="0" via=":J1_3_0" tl="J37" linkIndex="3" dir="r" state="o"/>
    <connection from="-E2" to="-E1" fromLane="0" toLane="0" via=":J1_4_0" tl="J37" linkIndex="4" dir="s" state="o"/>
    <connection from="-E2" to="-E5" fromLane="0" toLane="0" via=":J1_5_0" tl="J37" linkIndex="5" dir="l" state="o"/>
    <connection from="-E3" to="E6" fromLane="0" toLane="0" via=":J2_3_0" tl="J39" linkIndex="3" dir="r" state="o"/>
    <connection from="-E3" to="-E2" fromLane="0" toLane="0" via=":J2_4_0" tl="J39" linkIndex="4" dir="s" state="o"/>
    <connection from="-E3" to="E7" fromLane="0" toLane="0" via=":J2_5_0" tl="J39" linkIndex="5" dir="l" state="o"/>
    <connection from="-E6" to="-E2" fromLane="0" toLane="0" via=":J2_0_0" tl="J39" linkIndex="0" dir="r" state="O"/>
    <connection from="-E6" to="E7" fromLane="0" toLane="0" via=":J2_1_0" tl="J39" linkIndex="1" dir="s" state="O"/>
    <connection from="-E6" to="E3" fromLane="0" toLane="0" via=":J2_2_0" tl="J39" linkIndex="2" dir="l" state="o"/>
    <connection from="-E7" to="E3" fromLane="0" toLane="0" via=":J2_6_0" tl="J39" linkIndex="6" dir="r" state="O"/>
    <connection from="-E7" to="E6" fromLane="0" toLane="0" via=":J2_7_0" tl="J39" linkIndex="7" dir="s" state="O"/>
    <connection from="-E7" to="-E2" fromLane="0" toLane="0" via=":J2_8_0" tl="J39" linkIndex="8" dir="l" state="o"/>
    <connection from="E1" to="-E5" fromLane="0" toLane="0" via=":J1_9_0" tl="J37" linkIndex="9" dir="r" state="o"/>
    <connection from="E1" to="E2" fromLane="0" toLane="0" via=":J1_10_0" tl="J37" linkIndex="10" dir="s" state="o"/>
    <connection from="E1" to="-E4" fromLane="0" toLane="0" via=":J1_11_0" tl="J37" linkIndex="11" dir="l" state="o"/>
    <connection from="E2" to="E7" fromLane="0" toLane="0" via=":J2_9_0" tl="J39" linkIndex="9" dir="r" state="o"/>
    <connection from="E2" to="E3" fromLane="0" toLane="0" via=":J2_10_0" tl="J39" linkIndex="10" dir="s" state="o"/>
    <connection from="E2" to="E6" fromLane="0" toLane="0" via=":J2_11_0" tl="J39" linkIndex="11" dir="l" state="o"/>
    <connection from="E4" to="-E1" fromLane="0" toLane="0" via=":J1_0_0" tl="J37" linkIndex="0" dir="r" state="O"/>
    <connection from="E4" to="-E5" fromLane="0" toLane="0" via=":J1_1_0" tl="J37" linkIndex="1" dir="s" state="O"/>
    <connection from="E4" to="E2" fromLane="0" toLane="0" via=":J1_2_0" tl="J37" linkIndex="2" dir="l" state="o"/>
    <connection from="E5" to="E2" fromLane="0" toLane="0" via=":J1_6_0" tl="J37" linkIndex="6" dir="r" state="O"/>
    <connection from="E5" to="-E4" fromLane="0" toLane="0" via=":J1_7_0" tl="J37" linkIndex="7" dir="s" state="O"/>
    <connection from="E5" to="-E1" fromLane="0" toLane="0" via=":J1_8_0" tl="J37" linkIndex="8" dir="l" state="o"/>

    <connection from=":J1_0" to="-E1" fromLane="0" toLane="0" dir="r" state="M"/>
    <connection from=":J1_1" to="-E5" fromLane="0" toLane="0" dir="s" state="M"/>
    <connection from=":J1_2" to="E2" fromLane="0" toLane="0" via=":J1_12_0" dir="l" state="m"/>
    <connection from=":J1_12" to="E2" fromLane="0" toLane="0" dir="l" state="M"/>
    <connection from=":J1_3" to="-E4" fromLane="0" toLane="0" dir="r" state="M"/>
    <connection from=":J1_4" to="-E1" fromLane="0" toLane="0" dir="s" state="M"/>
    <connection from=":J1_5" to="-E5" fromLane="0" toLane="0" via=":J1_13_0" dir="l" state="m"/>
    <connection from=":J1_13" to="-E5" fromLane="0" toLane="0" dir="l" state="M"/>
    <connection from=":J1_6" to="E2" fromLane="0" toLane="0" dir="r" state="M"/>
    <connection from=":J1_7" to="-E4" fromLane="0" toLane="0" dir="s" state="M"/>
    <connection from=":J1_8" to="-E1" fromLane="0" toLane="0" via=":J1_14_0" dir="l" state="m"/>
    <connection from=":J1_14" to="-E1" fromLane="0" toLane="0" dir="l" state="M"/>
    <connection from=":J1_9" to="-E5" fromLane="0" toLane="0" dir="r" state="M"/>
    <connection from=":J1_10" to="E2" fromLane="0" toLane="0" dir="s" state="M"/>
    <connection from=":J1_11" to="-E4" fromLane="0" toLane="0" via=":J1_15_0" dir="l" state="m"/>
    <connection from=":J1_15" to="-E4" fromLane="0" toLane="0" dir="l" state="M"/>
    <connection from=":J2_0" to="-E2" fromLane="0" toLane="0" dir="r" state="M"/>
    <connection from=":J2_1" to="E7" fromLane="0" toLane="0" dir="s" state="M"/>
    <connection from=":J2_2" to="E3" fromLane="0" toLane="0" via=":J2_12_0" dir="l" state="m"/>
    <connection from=":J2_12" to="E3" fromLane="0" toLane="0" dir="l" state="M"/>
    <connection from=":J2_3" to="E6" fromLane="0" toLane="0" dir="r" state="M"/>
    <connection from=":J2_4" to="-E2" fromLane="0" toLane="0" dir="s" state="M"/>
    <connection from=":J2_5" to="E7" fromLane="0" toLane="0" via=":J2_13_0" dir="l" state="m"/>
    <connection from=":J2_13" to="E7" fromLane="0" toLane="0" dir="l" state="M"/>
    <connection from=":J2_6" to="E3" fromLane="0" toLane="0" dir="r" state="M"/>
    <connection from=":J2_7" to="E6" fromLane="0" toLane="0" dir="s" state="M"/>
    <connection from=":J2_8" to="-E2" fromLane="0" toLane="0" via=":J2_14_0" dir="l" state="m"/>
    <connection from=":J2_14" to="-E2" fromLane="0" toLane="0" dir="l" state="M"/>
    <connection from=":J2_9" to="E7" fromLane="0" toLane="0" dir="r" state="M"/>
    <connection from=":J2_10" to="E3" fromLane="0" toLane="0" dir="s" state="M"/>
    <connection from=":J2_11" to="E6" fromLane="0" toLane="0" via=":J2_15_0" dir="l" state="m"/>
    <connection from=":J2_15" to="E6" fromLane="0" toLane="0" dir="l" state="M"/>

</net>
