<?xml version="1.0" encoding="UTF-8"?>

<!-- generated on 2023-12-04 20:48:07 by Eclipse SUMO sumo Version 1.19.0
-->

<configuration xmlns:xsi="http://www.w3.org/2001/XMLSchema-instance" xsi:noNamespaceSchemaLocation="http://sumo.dlr.de/xsd/sumoConfiguration.xsd">

    <input>
        <net-file value="grid.net.xml"/>
		<route-files value="grid.rou.xml"/>
		
    </input>

</configuration>
