<?xml version="1.0" encoding="UTF-8"?>

<!-- generated on 2023-12-04 20:48:07 by Eclipse SUMO netedit Version 1.19.0
<configuration xmlns:xsi="http://www.w3.org/2001/XMLSchema-instance" xsi:noNamespaceSchemaLocation="http://sumo.dlr.de/xsd/neteditConfiguration.xsd">

    <input>
        <sumocfg-file value="C:\Users\hanme\meam-517-final\grid.sumocfg"/>
        <sumo-net-file value="C:\Users\hanme\meam-517-final\grid.net.xml"/>
    </input>

    <output>
        <output-file value="C:\Users\hanme\meam-517-final\grid.net.xml"/>
    </output>

    <processing>
        <geometry.min-radius.fix.railways value="false"/>
        <geometry.max-grade.fix value="false"/>
        <offset.disable-normalization value="true"/>
        <lefthand value="0"/>
    </processing>

    <junctions>
        <no-turnarounds value="true"/>
        <junctions.corner-detail value="5"/>
        <junctions.limit-turn-speed value="5.50"/>
        <rectangular-lane-cut value="0"/>
    </junctions>

    <pedestrian>
        <walkingareas value="0"/>
    </pedestrian>

</configuration>
-->

<net version="1.16" junctionCornerDetail="5" limitTurnSpeed="5.50" xmlns:xsi="http://www.w3.org/2001/XMLSchema-instance" xsi:noNamespaceSchemaLocation="http://sumo.dlr.de/xsd/net_file.xsd">

    <location netOffset="0.00,0.00" convBoundary="-100.00,-200.00,200.00,100.00" origBoundary="-10000000000.00,-10000000000.00,10000000000.00,10000000000.00" projParameter="!"/>

    <edge id=":J1_0" function="internal">
        <lane id=":J1_0_0" index="0" speed="6.51" length="9.03" shape="-1.60,7.20 -1.95,4.75 -3.00,3.00 -4.75,1.95 -7.20,1.60"/>
    </edge>
    <edge id=":J1_1" function="internal">
        <lane id=":J1_1_0" index="0" speed="13.89" length="14.40" shape="-1.60,7.20 -1.60,-7.20"/>
    </edge>
    <edge id=":J1_2" function="internal">
        <lane id=":J1_2_0" index="0" speed="8.00" length="4.07" shape="-1.60,7.20 -1.05,3.35 -0.96,3.20"/>
    </edge>
    <edge id=":J1_12" function="internal">
        <lane id=":J1_12_0" index="0" speed="8.00" length="10.13" shape="-0.96,3.20 0.60,0.60 3.35,-1.05 7.20,-1.60"/>
    </edge>
    <edge id=":J1_3" function="internal">
        <lane id=":J1_3_0" index="0" speed="6.51" length="9.03" shape="7.20,1.60 4.75,1.95 3.00,3.00 1.95,4.75 1.60,7.20"/>
    </edge>
    <edge id=":J1_4" function="internal">
        <lane id=":J1_4_0" index="0" speed="13.89" length="14.40" shape="7.20,1.60 -7.20,1.60"/>
    </edge>
    <edge id=":J1_5" function="internal">
        <lane id=":J1_5_0" index="0" speed="8.00" length="4.07" shape="7.20,1.60 3.35,1.05 3.20,0.96"/>
    </edge>
    <edge id=":J1_13" function="internal">
        <lane id=":J1_13_0" index="0" speed="8.00" length="10.13" shape="3.20,0.96 0.60,-0.60 -1.05,-3.35 -1.60,-7.20"/>
    </edge>
    <edge id=":J1_6" function="internal">
        <lane id=":J1_6_0" index="0" speed="6.51" length="9.03" shape="1.60,-7.20 1.95,-4.75 3.00,-3.00 4.75,-1.95 7.20,-1.60"/>
    </edge>
    <edge id=":J1_7" function="internal">
        <lane id=":J1_7_0" index="0" speed="13.89" length="14.40" shape="1.60,-7.20 1.60,7.20"/>
    </edge>
    <edge id=":J1_8" function="internal">
        <lane id=":J1_8_0" index="0" speed="8.00" length="4.07" shape="1.60,-7.20 1.05,-3.35 0.96,-3.20"/>
    </edge>
    <edge id=":J1_14" function="internal">
        <lane id=":J1_14_0" index="0" speed="8.00" length="10.13" shape="0.96,-3.20 -0.60,-0.60 -3.35,1.05 -7.20,1.60"/>
    </edge>
    <edge id=":J1_9" function="internal">
        <lane id=":J1_9_0" index="0" speed="6.51" length="9.03" shape="-7.20,-1.60 -4.75,-1.95 -3.00,-3.00 -1.95,-4.75 -1.60,-7.20"/>
    </edge>
    <edge id=":J1_10" function="internal">
        <lane id=":J1_10_0" index="0" speed="13.89" length="14.40" shape="-7.20,-1.60 7.20,-1.60"/>
    </edge>
    <edge id=":J1_11" function="internal">
        <lane id=":J1_11_0" index="0" speed="8.00" length="4.07" shape="-7.20,-1.60 -3.35,-1.05 -3.20,-0.96"/>
    </edge>
    <edge id=":J1_15" function="internal">
        <lane id=":J1_15_0" index="0" speed="8.00" length="10.13" shape="-3.20,-0.96 -0.60,0.60 1.05,3.35 1.60,7.20"/>
    </edge>
    <edge id=":J2_0" function="internal">
        <lane id=":J2_0_0" index="0" speed="6.51" length="9.03" shape="98.40,7.20 98.05,4.75 97.00,3.00 95.25,1.95 92.80,1.60"/>
    </edge>
    <edge id=":J2_1" function="internal">
        <lane id=":J2_1_0" index="0" speed="13.89" length="14.40" shape="98.40,7.20 98.40,-7.20"/>
    </edge>
    <edge id=":J2_2" function="internal">
        <lane id=":J2_2_0" index="0" speed="8.00" length="4.07" shape="98.40,7.20 98.95,3.35 99.04,3.20"/>
    </edge>
    <edge id=":J2_12" function="internal">
        <lane id=":J2_12_0" index="0" speed="8.00" length="10.13" shape="99.04,3.20 100.60,0.60 103.35,-1.05 107.20,-1.60"/>
    </edge>
    <edge id=":J2_3" function="internal">
        <lane id=":J2_3_0" index="0" speed="6.51" length="9.03" shape="107.20,1.60 104.75,1.95 103.00,3.00 101.95,4.75 101.60,7.20"/>
    </edge>
    <edge id=":J2_4" function="internal">
        <lane id=":J2_4_0" index="0" speed="13.89" length="14.40" shape="107.20,1.60 92.80,1.60"/>
    </edge>
    <edge id=":J2_5" function="internal">
        <lane id=":J2_5_0" index="0" speed="8.00" length="4.07" shape="107.20,1.60 103.35,1.05 103.20,0.96"/>
    </edge>
    <edge id=":J2_13" function="internal">
        <lane id=":J2_13_0" index="0" speed="8.00" length="10.13" shape="103.20,0.96 100.60,-0.60 98.95,-3.35 98.40,-7.20"/>
    </edge>
    <edge id=":J2_6" function="internal">
        <lane id=":J2_6_0" index="0" speed="6.51" length="9.03" shape="101.60,-7.20 101.95,-4.75 103.00,-3.00 104.75,-1.95 107.20,-1.60"/>
    </edge>
    <edge id=":J2_7" function="internal">
        <lane id=":J2_7_0" index="0" speed="13.89" length="14.40" shape="101.60,-7.20 101.60,7.20"/>
    </edge>
    <edge id=":J2_8" function="internal">
        <lane id=":J2_8_0" index="0" speed="8.00" length="4.07" shape="101.60,-7.20 101.05,-3.35 100.96,-3.20"/>
    </edge>
    <edge id=":J2_14" function="internal">
        <lane id=":J2_14_0" index="0" speed="8.00" length="10.13" shape="100.96,-3.20 99.40,-0.60 96.65,1.05 92.80,1.60"/>
    </edge>
    <edge id=":J2_9" function="internal">
        <lane id=":J2_9_0" index="0" speed="6.51" length="9.03" shape="92.80,-1.60 95.25,-1.95 97.00,-3.00 98.05,-4.75 98.40,-7.20"/>
    </edge>
    <edge id=":J2_10" function="internal">
        <lane id=":J2_10_0" index="0" speed="13.89" length="14.40" shape="92.80,-1.60 107.20,-1.60"/>
    </edge>
    <edge id=":J2_11" function="internal">
        <lane id=":J2_11_0" index="0" speed="8.00" length="4.07" shape="92.80,-1.60 96.65,-1.05 96.80,-0.96"/>
    </edge>
    <edge id=":J2_15" function="internal">
        <lane id=":J2_15_0" index="0" speed="8.00" length="10.13" shape="96.80,-0.96 99.40,0.60 101.05,3.35 101.60,7.20"/>
    </edge>
    <edge id=":J5_0" function="internal">
        <lane id=":J5_0_0" index="0" speed="6.51" length="9.03" shape="-1.60,-92.80 -1.95,-95.25 -3.00,-97.00 -4.75,-98.05 -7.20,-98.40"/>
    </edge>
    <edge id=":J5_1" function="internal">
        <lane id=":J5_1_0" index="0" speed="13.89" length="14.40" shape="-1.60,-92.80 -1.60,-107.20"/>
    </edge>
    <edge id=":J5_2" function="internal">
        <lane id=":J5_2_0" index="0" speed="8.00" length="4.07" shape="-1.60,-92.80 -1.05,-96.65 -0.96,-96.80"/>
    </edge>
    <edge id=":J5_12" function="internal">
        <lane id=":J5_12_0" index="0" speed="8.00" length="10.13" shape="-0.96,-96.80 0.60,-99.40 3.35,-101.05 7.20,-101.60"/>
    </edge>
    <edge id=":J5_3" function="internal">
        <lane id=":J5_3_0" index="0" speed="6.51" length="9.03" shape="7.20,-98.40 4.75,-98.05 3.00,-97.00 1.95,-95.25 1.60,-92.80"/>
    </edge>
    <edge id=":J5_4" function="internal">
        <lane id=":J5_4_0" index="0" speed="13.89" length="14.40" shape="7.20,-98.40 -7.20,-98.40"/>
    </edge>
    <edge id=":J5_5" function="internal">
        <lane id=":J5_5_0" index="0" speed="8.00" length="4.07" shape="7.20,-98.40 3.35,-98.95 3.20,-99.04"/>
    </edge>
    <edge id=":J5_13" function="internal">
        <lane id=":J5_13_0" index="0" speed="8.00" length="10.13" shape="3.20,-99.04 0.60,-100.60 -1.05,-103.35 -1.60,-107.20"/>
    </edge>
    <edge id=":J5_6" function="internal">
        <lane id=":J5_6_0" index="0" speed="6.51" length="9.03" shape="1.60,-107.20 1.95,-104.75 3.00,-103.00 4.75,-101.95 7.20,-101.60"/>
    </edge>
    <edge id=":J5_7" function="internal">
        <lane id=":J5_7_0" index="0" speed="13.89" length="14.40" shape="1.60,-107.20 1.60,-92.80"/>
    </edge>
    <edge id=":J5_8" function="internal">
        <lane id=":J5_8_0" index="0" speed="8.00" length="4.07" shape="1.60,-107.20 1.05,-103.35 0.96,-103.20"/>
    </edge>
    <edge id=":J5_14" function="internal">
        <lane id=":J5_14_0" index="0" speed="8.00" length="10.13" shape="0.96,-103.20 -0.60,-100.60 -3.35,-98.95 -7.20,-98.40"/>
    </edge>
    <edge id=":J5_9" function="internal">
        <lane id=":J5_9_0" index="0" speed="6.51" length="9.03" shape="-7.20,-101.60 -4.75,-101.95 -3.00,-103.00 -1.95,-104.75 -1.60,-107.20"/>
    </edge>
    <edge id=":J5_10" function="internal">
        <lane id=":J5_10_0" index="0" speed="13.89" length="14.40" shape="-7.20,-101.60 7.20,-101.60"/>
    </edge>
    <edge id=":J5_11" function="internal">
        <lane id=":J5_11_0" index="0" speed="8.00" length="4.07" shape="-7.20,-101.60 -3.35,-101.05 -3.20,-100.96"/>
    </edge>
    <edge id=":J5_15" function="internal">
        <lane id=":J5_15_0" index="0" speed="8.00" length="10.13" shape="-3.20,-100.96 -0.60,-99.40 1.05,-96.65 1.60,-92.80"/>
    </edge>
    <edge id=":J6_0" function="internal">
        <lane id=":J6_0_0" index="0" speed="6.51" length="9.03" shape="98.40,-92.80 98.05,-95.25 97.00,-97.00 95.25,-98.05 92.80,-98.40"/>
    </edge>
    <edge id=":J6_1" function="internal">
        <lane id=":J6_1_0" index="0" speed="13.89" length="14.40" shape="98.40,-92.80 98.40,-107.20"/>
    </edge>
    <edge id=":J6_2" function="internal">
        <lane id=":J6_2_0" index="0" speed="8.00" length="4.07" shape="98.40,-92.80 98.95,-96.65 99.04,-96.80"/>
    </edge>
    <edge id=":J6_12" function="internal">
        <lane id=":J6_12_0" index="0" speed="8.00" length="10.13" shape="99.04,-96.80 100.60,-99.40 103.35,-101.05 107.20,-101.60"/>
    </edge>
    <edge id=":J6_3" function="internal">
        <lane id=":J6_3_0" index="0" speed="6.51" length="9.03" shape="107.20,-98.40 104.75,-98.05 103.00,-97.00 101.95,-95.25 101.60,-92.80"/>
    </edge>
    <edge id=":J6_4" function="internal">
        <lane id=":J6_4_0" index="0" speed="13.89" length="14.40" shape="107.20,-98.40 92.80,-98.40"/>
    </edge>
    <edge id=":J6_5" function="internal">
        <lane id=":J6_5_0" index="0" speed="8.00" length="4.07" shape="107.20,-98.40 103.35,-98.95 103.20,-99.04"/>
    </edge>
    <edge id=":J6_13" function="internal">
        <lane id=":J6_13_0" index="0" speed="8.00" length="10.13" shape="103.20,-99.04 100.60,-100.60 98.95,-103.35 98.40,-107.20"/>
    </edge>
    <edge id=":J6_6" function="internal">
        <lane id=":J6_6_0" index="0" speed="6.51" length="9.03" shape="101.60,-107.20 101.95,-104.75 103.00,-103.00 104.75,-101.95 107.20,-101.60"/>
    </edge>
    <edge id=":J6_7" function="internal">
        <lane id=":J6_7_0" index="0" speed="13.89" length="14.40" shape="101.60,-107.20 101.60,-92.80"/>
    </edge>
    <edge id=":J6_8" function="internal">
        <lane id=":J6_8_0" index="0" speed="8.00" length="4.07" shape="101.60,-107.20 101.05,-103.35 100.96,-103.20"/>
    </edge>
    <edge id=":J6_14" function="internal">
        <lane id=":J6_14_0" index="0" speed="8.00" length="10.13" shape="100.96,-103.20 99.40,-100.60 96.65,-98.95 92.80,-98.40"/>
    </edge>
    <edge id=":J6_9" function="internal">
        <lane id=":J6_9_0" index="0" speed="6.51" length="9.03" shape="92.80,-101.60 95.25,-101.95 97.00,-103.00 98.05,-104.75 98.40,-107.20"/>
    </edge>
    <edge id=":J6_10" function="internal">
        <lane id=":J6_10_0" index="0" speed="13.89" length="14.40" shape="92.80,-101.60 107.20,-101.60"/>
    </edge>
    <edge id=":J6_11" function="internal">
        <lane id=":J6_11_0" index="0" speed="8.00" length="4.07" shape="92.80,-101.60 96.65,-101.05 96.80,-100.96"/>
    </edge>
    <edge id=":J6_15" function="internal">
        <lane id=":J6_15_0" index="0" speed="8.00" length="10.13" shape="96.80,-100.96 99.40,-99.40 101.05,-96.65 101.60,-92.80"/>
    </edge>

    <edge id="-E0" from="J1" to="J0" priority="-1">
        <lane id="-E0_0" index="0" speed="13.89" length="92.80" shape="-7.20,1.60 -100.00,1.60"/>
    </edge>
    <edge id="-E1" from="J2" to="J1" priority="-1">
        <lane id="-E1_0" index="0" speed="13.89" length="85.60" shape="92.80,1.60 7.20,1.60"/>
    </edge>
    <edge id="-E10" from="J6" to="J2" priority="-1">
        <lane id="-E10_0" index="0" speed="13.89" length="85.60" shape="101.60,-92.80 101.60,-7.20"/>
    </edge>
    <edge id="-E11" from="J11" to="J6" priority="-1">
        <lane id="-E11_0" index="0" speed="13.89" length="92.80" shape="101.60,-200.00 101.60,-107.20"/>
    </edge>
    <edge id="-E2" from="J3" to="J2" priority="-1">
        <lane id="-E2_0" index="0" speed="13.89" length="92.80" shape="200.00,1.60 107.20,1.60"/>
    </edge>
    <edge id="-E3" from="J5" to="J4" priority="-1">
        <lane id="-E3_0" index="0" speed="13.89" length="92.80" shape="-7.20,-98.40 -100.00,-98.40"/>
    </edge>
    <edge id="-E4" from="J6" to="J5" priority="-1">
        <lane id="-E4_0" index="0" speed="13.89" length="85.60" shape="92.80,-98.40 7.20,-98.40"/>
    </edge>
    <edge id="-E5" from="J7" to="J6" priority="-1">
        <lane id="-E5_0" index="0" speed="13.89" length="92.80" shape="200.00,-98.40 107.20,-98.40"/>
    </edge>
    <edge id="-E6" from="J1" to="J8" priority="-1">
        <lane id="-E6_0" index="0" speed="13.89" length="92.80" shape="1.60,7.20 1.60,100.00"/>
    </edge>
    <edge id="-E7" from="J5" to="J1" priority="-1">
        <lane id="-E7_0" index="0" speed="13.89" length="85.60" shape="1.60,-92.80 1.60,-7.20"/>
    </edge>
    <edge id="-E8" from="J9" to="J5" priority="-1">
        <lane id="-E8_0" index="0" speed="13.89" length="92.80" shape="1.60,-200.00 1.60,-107.20"/>
    </edge>
    <edge id="-E9" from="J2" to="J10" priority="-1">
        <lane id="-E9_0" index="0" speed="13.89" length="92.80" shape="101.60,7.20 101.60,100.00"/>
    </edge>
    <edge id="E0" from="J0" to="J1" priority="-1">
        <lane id="E0_0" index="0" speed="13.89" length="92.80" shape="-100.00,-1.60 -7.20,-1.60"/>
    </edge>
    <edge id="E1" from="J1" to="J2" priority="-1">
        <lane id="E1_0" index="0" speed="13.89" length="85.60" shape="7.20,-1.60 92.80,-1.60"/>
    </edge>
    <edge id="E10" from="J2" to="J6" priority="-1">
        <lane id="E10_0" index="0" speed="13.89" length="85.60" shape="98.40,-7.20 98.40,-92.80"/>
    </edge>
    <edge id="E11" from="J6" to="J11" priority="-1">
        <lane id="E11_0" index="0" speed="13.89" length="92.80" shape="98.40,-107.20 98.40,-200.00"/>
    </edge>
    <edge id="E2" from="J2" to="J3" priority="-1">
        <lane id="E2_0" index="0" speed="13.89" length="92.80" shape="107.20,-1.60 200.00,-1.60"/>
    </edge>
    <edge id="E3" from="J4" to="J5" priority="-1">
        <lane id="E3_0" index="0" speed="13.89" length="92.80" shape="-100.00,-101.60 -7.20,-101.60"/>
    </edge>
    <edge id="E4" from="J5" to="J6" priority="-1">
        <lane id="E4_0" index="0" speed="13.89" length="85.60" shape="7.20,-101.60 92.80,-101.60"/>
    </edge>
    <edge id="E5" from="J6" to="J7" priority="-1">
        <lane id="E5_0" index="0" speed="13.89" length="92.80" shape="107.20,-101.60 200.00,-101.60"/>
    </edge>
    <edge id="E6" from="J8" to="J1" priority="-1">
        <lane id="E6_0" index="0" speed="13.89" length="92.80" shape="-1.60,100.00 -1.60,7.20"/>
    </edge>
    <edge id="E7" from="J1" to="J5" priority="-1">
        <lane id="E7_0" index="0" speed="13.89" length="85.60" shape="-1.60,-7.20 -1.60,-92.80"/>
    </edge>
    <edge id="E8" from="J5" to="J9" priority="-1">
        <lane id="E8_0" index="0" speed="13.89" length="92.80" shape="-1.60,-107.20 -1.60,-200.00"/>
    </edge>
    <edge id="E9" from="J10" to="J2" priority="-1">
        <lane id="E9_0" index="0" speed="13.89" length="92.80" shape="98.40,100.00 98.40,7.20"/>
    </edge>

    <tlLogic id="J1" type="static" programID="0" offset="0">
        <phase duration="42" state="GGgrrrGGgrrr"/>
        <phase duration="3"  state="yyyrrryyyrrr"/>
        <phase duration="42" state="rrrGGgrrrGGg"/>
        <phase duration="3"  state="rrryyyrrryyy"/>
    </tlLogic>
    <tlLogic id="J2" type="static" programID="0" offset="0">
        <phase duration="42" state="GGgrrrGGgrrr"/>
        <phase duration="3"  state="yyyrrryyyrrr"/>
        <phase duration="42" state="rrrGGgrrrGGg"/>
        <phase duration="3"  state="rrryyyrrryyy"/>
    </tlLogic>
    <tlLogic id="J5" type="static" programID="0" offset="0">
        <phase duration="42" state="GGgrrrGGgrrr"/>
        <phase duration="3"  state="yyyrrryyyrrr"/>
        <phase duration="42" state="rrrGGgrrrGGg"/>
        <phase duration="3"  state="rrryyyrrryyy"/>
    </tlLogic>
    <tlLogic id="J6" type="static" programID="0" offset="0">
        <phase duration="42" state="GGgrrrGGgrrr"/>
        <phase duration="3"  state="yyyrrryyyrrr"/>
        <phase duration="42" state="rrrGGgrrrGGg"/>
        <phase duration="3"  state="rrryyyrrryyy"/>
    </tlLogic>

    <junction id="J0" type="dead_end" x="-100.00" y="0.00" incLanes="-E0_0" intLanes="" shape="-100.00,0.00 -100.00,3.20 -100.00,0.00"/>
    <junction id="J1" type="traffic_light" x="0.00" y="0.00" incLanes="E6_0 -E1_0 -E7_0 E0_0" intLanes=":J1_0_0 :J1_1_0 :J1_12_0 :J1_3_0 :J1_4_0 :J1_13_0 :J1_6_0 :J1_7_0 :J1_14_0 :J1_9_0 :J1_10_0 :J1_15_0" shape="-3.20,7.20 3.20,7.20 3.64,4.98 4.20,4.20 4.98,3.64 5.98,3.31 7.20,3.20 7.20,-3.20 4.98,-3.64 4.20,-4.20 3.64,-4.98 3.31,-5.98 3.20,-7.20 -3.20,-7.20 -3.64,-4.98 -4.20,-4.20 -4.98,-3.64 -5.98,-3.31 -7.20,-3.20 -7.20,3.20 -4.98,3.64 -4.20,4.20 -3.64,4.98 -3.31,5.98">
        <request index="0"  response="000000000000" foes="000100010000" cont="0"/>
        <request index="1"  response="100000100000" foes="111100110000" cont="0"/>
        <request index="2"  response="100011100000" foes="110111110000" cont="1"/>
        <request index="3"  response="000010000000" foes="100010000000" cont="0"/>
        <request index="4"  response="000110000111" foes="100110000111" cont="0"/>
        <request index="5"  response="111110000110" foes="111110000110" cont="1"/>
        <request index="6"  response="000000000000" foes="010000000100" cont="0"/>
        <request index="7"  response="100000100000" foes="110000111100" cont="0"/>
        <request index="8"  response="100000100111" foes="110000110111" cont="1"/>
        <request index="9"  response="000000000010" foes="000000100010" cont="0"/>
        <request index="10" response="000111000110" foes="000111100110" cont="0"/>
        <request index="11" response="000110011110" foes="000110111110" cont="1"/>
    </junction>
    <junction id="J10" type="dead_end" x="100.00" y="100.00" incLanes="-E9_0" intLanes="" shape="100.00,100.00 103.20,100.00 100.00,100.00"/>
    <junction id="J11" type="dead_end" x="100.00" y="-200.00" incLanes="E11_0" intLanes="" shape="100.00,-200.00 96.80,-200.00 100.00,-200.00"/>
    <junction id="J2" type="traffic_light" x="100.00" y="0.00" incLanes="E9_0 -E2_0 -E10_0 E1_0" intLanes=":J2_0_0 :J2_1_0 :J2_12_0 :J2_3_0 :J2_4_0 :J2_13_0 :J2_6_0 :J2_7_0 :J2_14_0 :J2_9_0 :J2_10_0 :J2_15_0" shape="96.80,7.20 103.20,7.20 103.64,4.98 104.20,4.20 104.98,3.64 105.98,3.31 107.20,3.20 107.20,-3.20 104.98,-3.64 104.20,-4.20 103.64,-4.98 103.31,-5.98 103.20,-7.20 96.80,-7.20 96.36,-4.98 95.80,-4.20 95.02,-3.64 94.02,-3.31 92.80,-3.20 92.80,3.20 95.02,3.64 95.80,4.20 96.36,4.98 96.69,5.98">
        <request index="0"  response="000000000000" foes="000100010000" cont="0"/>
        <request index="1"  response="100000100000" foes="111100110000" cont="0"/>
        <request index="2"  response="100011100000" foes="110111110000" cont="1"/>
        <request index="3"  response="000010000000" foes="100010000000" cont="0"/>
        <request index="4"  response="000110000111" foes="100110000111" cont="0"/>
        <request index="5"  response="111110000110" foes="111110000110" cont="1"/>
        <request index="6"  response="000000000000" foes="010000000100" cont="0"/>
        <request index="7"  response="100000100000" foes="110000111100" cont="0"/>
        <request index="8"  response="100000100111" foes="110000110111" cont="1"/>
        <request index="9"  response="000000000010" foes="000000100010" cont="0"/>
        <request index="10" response="000111000110" foes="000111100110" cont="0"/>
        <request index="11" response="000110011110" foes="000110111110" cont="1"/>
    </junction>
    <junction id="J3" type="dead_end" x="200.00" y="0.00" incLanes="E2_0" intLanes="" shape="200.00,0.00 200.00,-3.20 200.00,0.00"/>
    <junction id="J4" type="dead_end" x="-100.00" y="-100.00" incLanes="-E3_0" intLanes="" shape="-100.00,-100.00 -100.00,-96.80 -100.00,-100.00"/>
    <junction id="J5" type="traffic_light" x="0.00" y="-100.00" incLanes="E7_0 -E4_0 -E8_0 E3_0" intLanes=":J5_0_0 :J5_1_0 :J5_12_0 :J5_3_0 :J5_4_0 :J5_13_0 :J5_6_0 :J5_7_0 :J5_14_0 :J5_9_0 :J5_10_0 :J5_15_0" shape="-3.20,-92.80 3.20,-92.80 3.64,-95.02 4.20,-95.80 4.98,-96.36 5.98,-96.69 7.20,-96.80 7.20,-103.20 4.98,-103.64 4.20,-104.20 3.64,-104.98 3.31,-105.98 3.20,-107.20 -3.20,-107.20 -3.64,-104.98 -4.20,-104.20 -4.98,-103.64 -5.98,-103.31 -7.20,-103.20 -7.20,-96.80 -4.98,-96.36 -4.20,-95.80 -3.64,-95.02 -3.31,-94.02">
        <request index="0"  response="000000000000" foes="000100010000" cont="0"/>
        <request index="1"  response="100000100000" foes="111100110000" cont="0"/>
        <request index="2"  response="100011100000" foes="110111110000" cont="1"/>
        <request index="3"  response="000010000000" foes="100010000000" cont="0"/>
        <request index="4"  response="000110000111" foes="100110000111" cont="0"/>
        <request index="5"  response="111110000110" foes="111110000110" cont="1"/>
        <request index="6"  response="000000000000" foes="010000000100" cont="0"/>
        <request index="7"  response="100000100000" foes="110000111100" cont="0"/>
        <request index="8"  response="100000100111" foes="110000110111" cont="1"/>
        <request index="9"  response="000000000010" foes="000000100010" cont="0"/>
        <request index="10" response="000111000110" foes="000111100110" cont="0"/>
        <request index="11" response="000110011110" foes="000110111110" cont="1"/>
    </junction>
    <junction id="J6" type="traffic_light" x="100.00" y="-100.00" incLanes="E10_0 -E5_0 -E11_0 E4_0" intLanes=":J6_0_0 :J6_1_0 :J6_12_0 :J6_3_0 :J6_4_0 :J6_13_0 :J6_6_0 :J6_7_0 :J6_14_0 :J6_9_0 :J6_10_0 :J6_15_0" shape="96.80,-92.80 103.20,-92.80 103.64,-95.02 104.20,-95.80 104.98,-96.36 105.98,-96.69 107.20,-96.80 107.20,-103.20 104.98,-103.64 104.20,-104.20 103.64,-104.98 103.31,-105.98 103.20,-107.20 96.80,-107.20 96.36,-104.98 95.80,-104.20 95.02,-103.64 94.02,-103.31 92.80,-103.20 92.80,-96.80 95.02,-96.36 95.80,-95.80 96.36,-95.02 96.69,-94.02">
        <request index="0"  response="000000000000" foes="000100010000" cont="0"/>
        <request index="1"  response="100000100000" foes="111100110000" cont="0"/>
        <request index="2"  response="100011100000" foes="110111110000" cont="1"/>
        <request index="3"  response="000010000000" foes="100010000000" cont="0"/>
        <request index="4"  response="000110000111" foes="100110000111" cont="0"/>
        <request index="5"  response="111110000110" foes="111110000110" cont="1"/>
        <request index="6"  response="000000000000" foes="010000000100" cont="0"/>
        <request index="7"  response="100000100000" foes="110000111100" cont="0"/>
        <request index="8"  response="100000100111" foes="110000110111" cont="1"/>
        <request index="9"  response="000000000010" foes="000000100010" cont="0"/>
        <request index="10" response="000111000110" foes="000111100110" cont="0"/>
        <request index="11" response="000110011110" foes="000110111110" cont="1"/>
    </junction>
    <junction id="J7" type="dead_end" x="200.00" y="-100.00" incLanes="E5_0" intLanes="" shape="200.00,-100.00 200.00,-103.20 200.00,-100.00"/>
    <junction id="J8" type="dead_end" x="0.00" y="100.00" incLanes="-E6_0" intLanes="" shape="0.00,100.00 3.20,100.00 0.00,100.00"/>
    <junction id="J9" type="dead_end" x="0.00" y="-200.00" incLanes="E8_0" intLanes="" shape="0.00,-200.00 -3.20,-200.00 0.00,-200.00"/>

    <junction id=":J1_12_0" type="internal" x="-0.96" y="3.20" incLanes=":J1_2_0 -E7_0" intLanes=":J1_4_0 :J1_5_0 :J1_6_0 :J1_7_0 :J1_10_0 :J1_11_0"/>
    <junction id=":J1_13_0" type="internal" x="3.20" y="0.96" incLanes=":J1_5_0 E0_0" intLanes=":J1_1_0 :J1_2_0 :J1_7_0 :J1_8_0 :J1_9_0 :J1_10_0"/>
    <junction id=":J1_14_0" type="internal" x="0.96" y="-3.20" incLanes=":J1_8_0 E6_0" intLanes=":J1_0_0 :J1_1_0 :J1_4_0 :J1_5_0 :J1_10_0 :J1_11_0"/>
    <junction id=":J1_15_0" type="internal" x="-3.20" y="-0.96" incLanes=":J1_11_0 -E1_0" intLanes=":J1_1_0 :J1_2_0 :J1_3_0 :J1_4_0 :J1_7_0 :J1_8_0"/>
    <junction id=":J2_12_0" type="internal" x="99.04" y="3.20" incLanes=":J2_2_0 -E10_0" intLanes=":J2_4_0 :J2_5_0 :J2_6_0 :J2_7_0 :J2_10_0 :J2_11_0"/>
    <junction id=":J2_13_0" type="internal" x="103.20" y="0.96" incLanes=":J2_5_0 E1_0" intLanes=":J2_1_0 :J2_2_0 :J2_7_0 :J2_8_0 :J2_9_0 :J2_10_0"/>
    <junction id=":J2_14_0" type="internal" x="100.96" y="-3.20" incLanes=":J2_8_0 E9_0" intLanes=":J2_0_0 :J2_1_0 :J2_4_0 :J2_5_0 :J2_10_0 :J2_11_0"/>
    <junction id=":J2_15_0" type="internal" x="96.80" y="-0.96" incLanes=":J2_11_0 -E2_0" intLanes=":J2_1_0 :J2_2_0 :J2_3_0 :J2_4_0 :J2_7_0 :J2_8_0"/>
    <junction id=":J5_12_0" type="internal" x="-0.96" y="-96.80" incLanes=":J5_2_0 -E8_0" intLanes=":J5_4_0 :J5_5_0 :J5_6_0 :J5_7_0 :J5_10_0 :J5_11_0"/>
    <junction id=":J5_13_0" type="internal" x="3.20" y="-99.04" incLanes=":J5_5_0 E3_0" intLanes=":J5_1_0 :J5_2_0 :J5_7_0 :J5_8_0 :J5_9_0 :J5_10_0"/>
    <junction id=":J5_14_0" type="internal" x="0.96" y="-103.20" incLanes=":J5_8_0 E7_0" intLanes=":J5_0_0 :J5_1_0 :J5_4_0 :J5_5_0 :J5_10_0 :J5_11_0"/>
    <junction id=":J5_15_0" type="internal" x="-3.20" y="-100.96" incLanes=":J5_11_0 -E4_0" intLanes=":J5_1_0 :J5_2_0 :J5_3_0 :J5_4_0 :J5_7_0 :J5_8_0"/>
    <junction id=":J6_12_0" type="internal" x="99.04" y="-96.80" incLanes=":J6_2_0 -E11_0" intLanes=":J6_4_0 :J6_5_0 :J6_6_0 :J6_7_0 :J6_10_0 :J6_11_0"/>
    <junction id=":J6_13_0" type="internal" x="103.20" y="-99.04" incLanes=":J6_5_0 E4_0" intLanes=":J6_1_0 :J6_2_0 :J6_7_0 :J6_8_0 :J6_9_0 :J6_10_0"/>
    <junction id=":J6_14_0" type="internal" x="100.96" y="-103.20" incLanes=":J6_8_0 E10_0" intLanes=":J6_0_0 :J6_1_0 :J6_4_0 :J6_5_0 :J6_10_0 :J6_11_0"/>
    <junction id=":J6_15_0" type="internal" x="96.80" y="-100.96" incLanes=":J6_11_0 -E5_0" intLanes=":J6_1_0 :J6_2_0 :J6_3_0 :J6_4_0 :J6_7_0 :J6_8_0"/>

    <connection from="-E1" to="-E6" fromLane="0" toLane="0" via=":J1_3_0" tl="J1" linkIndex="3" dir="r" state="o"/>
    <connection from="-E1" to="-E0" fromLane="0" toLane="0" via=":J1_4_0" tl="J1" linkIndex="4" dir="s" state="o"/>
    <connection from="-E1" to="E7" fromLane="0" toLane="0" via=":J1_5_0" tl="J1" linkIndex="5" dir="l" state="o"/>
    <connection from="-E10" to="E2" fromLane="0" toLane="0" via=":J2_6_0" tl="J2" linkIndex="6" dir="r" state="O"/>
    <connection from="-E10" to="-E9" fromLane="0" toLane="0" via=":J2_7_0" tl="J2" linkIndex="7" dir="s" state="O"/>
    <connection from="-E10" to="-E1" fromLane="0" toLane="0" via=":J2_8_0" tl="J2" linkIndex="8" dir="l" state="o"/>
    <connection from="-E11" to="E5" fromLane="0" toLane="0" via=":J6_6_0" tl="J6" linkIndex="6" dir="r" state="O"/>
    <connection from="-E11" to="-E10" fromLane="0" toLane="0" via=":J6_7_0" tl="J6" linkIndex="7" dir="s" state="O"/>
    <connection from="-E11" to="-E4" fromLane="0" toLane="0" via=":J6_8_0" tl="J6" linkIndex="8" dir="l" state="o"/>
    <connection from="-E2" to="-E9" fromLane="0" toLane="0" via=":J2_3_0" tl="J2" linkIndex="3" dir="r" state="o"/>
    <connection from="-E2" to="-E1" fromLane="0" toLane="0" via=":J2_4_0" tl="J2" linkIndex="4" dir="s" state="o"/>
    <connection from="-E2" to="E10" fromLane="0" toLane="0" via=":J2_5_0" tl="J2" linkIndex="5" dir="l" state="o"/>
    <connection from="-E4" to="-E7" fromLane="0" toLane="0" via=":J5_3_0" tl="J5" linkIndex="3" dir="r" state="o"/>
    <connection from="-E4" to="-E3" fromLane="0" toLane="0" via=":J5_4_0" tl="J5" linkIndex="4" dir="s" state="o"/>
    <connection from="-E4" to="E8" fromLane="0" toLane="0" via=":J5_5_0" tl="J5" linkIndex="5" dir="l" state="o"/>
    <connection from="-E5" to="-E10" fromLane="0" toLane="0" via=":J6_3_0" tl="J6" linkIndex="3" dir="r" state="o"/>
    <connection from="-E5" to="-E4" fromLane="0" toLane="0" via=":J6_4_0" tl="J6" linkIndex="4" dir="s" state="o"/>
    <connection from="-E5" to="E11" fromLane="0" toLane="0" via=":J6_5_0" tl="J6" linkIndex="5" dir="l" state="o"/>
    <connection from="-E7" to="E1" fromLane="0" toLane="0" via=":J1_6_0" tl="J1" linkIndex="6" dir="r" state="O"/>