<?xml version="1.0" encoding="UTF-8"?>

<!-- generated on 2023-11-21 14:50:22.354967 by osmWebWizard.py v1_19_0+0000-baa66a0f364
<configuration>
    <net-file value="C:\Users\hanme\Sumo\2023-11-21-14-50-12\osm.net.xml.gz"/>
    <output-trip-file value="C:\Users\hanme\Sumo\2023-11-21-14-50-12\osm.passenger.trips.xml"/>
    <route-file value="C:\Users\hanme\Sumo\2023-11-21-14-50-12\osm.passenger.rou.xml"/>
    <prefix value="veh"/>
    <trip-attributes value="departLane=&quot;best&quot;"/>
    <fringe-start-attributes value="departSpeed=&quot;max&quot;"/>
    <vehicle-class value="passenger"/>
    <lanes value="True"/>
    <fringe-factor value="5"/>
    <allow-fringe.min-length value="1000.0"/>
    <via-edge-types value="highway.motorway,highway.motorway_link,highway.trunk_link,highway.primary_link,highway.secondary_link,highway.tertiary_link"/>
    <min-distance value="300.0"/>
    <min-distance.fringe value="10.0"/>
    <remove-loops value="True"/>
    <validate value="True"/>
    <insertion-density value="12.0"/>
</configuration>
-->

<!-- generated on 2023-11-21 14:50:22 by Eclipse SUMO duarouter Version 1.19.0
<configuration xmlns:xsi="http://www.w3.org/2001/XMLSchema-instance" xsi:noNamespaceSchemaLocation="http://sumo.dlr.de/xsd/duarouterConfiguration.xsd">

    <input>
        <net-file value="C:\Users\hanme\Sumo\2023-11-21-14-50-12\osm.net.xml.gz"/>
        <route-files value="C:\Users\hanme\Sumo\2023-11-21-14-50-12\osm.passenger.trips.xml"/>
    </input>

    <output>
        <output-file value="C:\Users\hanme\Sumo\2023-11-21-14-50-12\osm.passenger.trips.xml.tmp"/>
        <alternatives-output value="NUL"/>
        <write-trips value="true"/>
    </output>

    <processing>
        <remove-loops value="true"/>
    </processing>

    <time>
        <begin value="0.0"/>
        <end value="3600.0"/>
    </time>

    <report>
        <no-warnings value="true"/>
        <ignore-errors value="true"/>
        <no-step-log value="true"/>
    </report>

</configuration>
-->

<routes xmlns:xsi="http://www.w3.org/2001/XMLSchema-instance" xsi:noNamespaceSchemaLocation="http://sumo.dlr.de/xsd/routes_file.xsd">
    <vType id="veh_passenger" vClass="passenger"/>
    <trip id="veh0" type="veh_passenger" depart="0.00" departLane="best" from="-424799825" to="-1222833879#1"/>
    <trip id="veh1" type="veh_passenger" depart="7.14" departLane="best" from="1200629381#1" to="1119787749"/>
    <trip id="veh2" type="veh_passenger" depart="14.27" departLane="best" from="34685684#2" to="424769182"/>
    <trip id="veh3" type="veh_passenger" depart="21.41" departLane="best" from="62203498#0" to="32121146#1"/>
    <trip id="veh5" type="veh_passenger" depart="35.68" departLane="best" from="-1222833892#1" to="1031067191"/>
    <trip id="veh6" type="veh_passenger" depart="42.82" departLane="best" from="424801337#0" to="357338487#9"/>
    <trip id="veh7" type="veh_passenger" depart="49.95" departLane="best" from="1199657268#0" to="386547296"/>
    <trip id="veh9" type="veh_passenger" depart="64.23" departLane="best" from="50033050#2" to="424801337#2"/>
    <trip id="veh10" type="veh_passenger" depart="71.36" departLane="best" departSpeed="max" from="1222833868#0" to="556958057#2"/>
    <trip id="veh11" type="veh_passenger" depart="78.50" departLane="best" from="-424080766" to="424080767#0"/>
    <trip id="veh12" type="veh_passenger" depart="85.64" departLane="best" from="556958057#2" to="388533143#1"/>
    <trip id="veh14" type="veh_passenger" depart="99.91" departLane="best" from="357338496#3" to="856813195#1"/>
    <trip id="veh15" type="veh_passenger" depart="107.05" departLane="best" from="1222833887#1" to="357338496#2"/>
    <trip id="veh16" type="veh_passenger" depart="114.18" departLane="best" from="51049946#2" to="388533144#3"/>
    <trip id="veh17" type="veh_passenger" depart="121.32" departLane="best" departSpeed="max" from="59435515#0" to="38502259#1"/>
    <trip id="veh18" type="veh_passenger" depart="128.45" departLane="best" from="450695475#0" to="262962065#2"/>
    <trip id="veh19" type="veh_passenger" depart="135.59" departLane="best" from="1199657270#0" to="12134479#4"/>
    <trip id="veh20" type="veh_passenger" depart="142.73" departLane="best" from="-32118998#4" to="1199657268#0"/>
    <trip id="veh21" type="veh_passenger" depart="149.86" departLane="best" from="424080769#0" to="-12134222#3"/>
    <trip id="veh22" type="veh_passenger" depart="157.00" departLane="best" from="-12134222#7" to="63060727#0"/>
    <trip id="veh23" type="veh_passenger" depart="164.14" departLane="best" from="-839725848#1" to="137364609#2"/>
    <trip id="veh24" type="veh_passenger" depart="171.27" departLane="best" from="-753812004#0" to="1222833879#1"/>
    <trip id="veh25" type="veh_passenger" depart="178.41" departLane="best" from="858159498#0" to="388533145#4"/>
    <trip id="veh26" type="veh_passenger" depart="185.54" departLane="best" from="386547296" to="-424799828#1"/>
    <trip id="veh27" type="veh_passenger" depart="192.68" departLane="best" from="1199657270#0" to="1222879896#1"/>
    <trip id="veh28" type="veh_passenger" depart="199.82" departLane="best" from="12202008#2" to="12117702#2"/>
    <trip id="veh31" type="veh_passenger" depart="221.23" departLane="best" from="424801337#1" to="1222833887#2"/>
    <trip id="veh33" type="veh_passenger" depart="235.50" departLane="best" from="388533144#7" to="62203497#1"/>
    <trip id="veh34" type="veh_passenger" depart="242.64" departLane="best" from="903721719#1" to="30953497"/>
    <trip id="veh35" type="veh_passenger" depart="249.77" departLane="best" from="424080772#1" to="388533144#8"/>
    <trip id="veh36" type="veh_passenger" depart="256.91" departLane="best" from="50033030#0" to="-424799826#0"/>
    <trip id="veh37" type="veh_passenger" depart="264.04" departLane="best" from="-283621822#2" to="1222833882#0"/>
    <trip id="veh38" type="veh_passenger" depart="271.18" departLane="best" from="903721719#0" to="34685684#1"/>
    <trip id="veh39" type="veh_passenger" depart="278.32" departLane="best" from="856813195#1" to="51049946#2"/>
    <trip id="veh40" type="veh_passenger" depart="285.45" departLane="best" departSpeed="max" from="42706874#0" to="357338487#10"/>
    <trip id="veh41" type="veh_passenger" depart="292.59" departLane="best" from="-12134222#7" to="388533145#5"/>
    <trip id="veh42" type="veh_passenger" depart="299.73" departLane="best" from="424080772#1" to="137364609#5"/>
    <trip id="veh43" type="veh_passenger" depart="306.86" departLane="best" from="-262962068#1" to="-784598040"/>
    <trip id="veh45" type="veh_passenger" depart="321.14" departLane="best" departSpeed="max" from="32118650" to="-858153864"/>
    <trip id="veh46" type="veh_passenger" depart="328.27" departLane="best" departSpeed="max" from="62634019" to="556958049#1"/>
    <trip id="veh47" type="veh_passenger" depart="335.41" departLane="best" from="12183170#0" to="388533145#4"/>
    <trip id="veh48" type="veh_passenger" depart="342.54" departLane="best" from="450844979#1" to="357338487#10"/>
    <trip id="veh49" type="veh_passenger" depart="349.68" departLane="best" from="484953514#0" to="34685684#2"/>
    <trip id="veh50" type="veh_passenger" depart="356.82" departLane="best" from="-12189045#2" to="62646499#1"/>
    <trip id="veh52" type="veh_passenger" depart="371.09" departLane="best" from="-12189045#1" to="-264351493#4"/>
    <trip id="veh54" type="veh_passenger" depart="385.36" departLane="best" from="386547298#1" to="49991666#0"/>
    <trip id="veh55" type="veh_passenger" depart="392.50" departLane="best" from="288513230#0" to="450844939#2"/>
    <trip id="veh56" type="veh_passenger" depart="399.64" departLane="best" from="450844982#1" to="-484842173"/>
    <trip id="veh57" type="veh_passenger" depart="406.77" departLane="best" from="288513232" to="357338496#2"/>
    <trip id="veh58" type="veh_passenger" depart="413.91" departLane="best" from="12134222#3" to="556958057#0"/>
    <trip id="veh59" type="veh_passenger" depart="421.04" departLane="best" from="262962065#2" to="1052604215"/>
    <trip id="veh61" type="veh_passenger" depart="435.32" departLane="best" from="-902647105" to="-424080761#0"/>
    <trip id="veh62" type="veh_passenger" depart="442.45" departLane="best" departSpeed="max" from="262962066#0" to="32118998#3"/>
    <trip id="veh63" type="veh_passenger" depart="449.59" departLane="best" from="-424801341#1" to="1119787749"/>
    <trip id="veh64" type="veh_passenger" depart="456.73" departLane="best" departSpeed="max" from="1222833868#0" to="38502259#1"/>
    <trip id="veh66" type="veh_passenger" depart="471.00" departLane="best" from="30953025#0" to="388533145#1"/>
    <trip id="veh67" type="veh_passenger" depart="478.13" departLane="best" from="1199657270#0" to="62203498#0"/>
    <trip id="veh68" type="veh_passenger" depart="485.27" departLane="best" departSpeed="max" from="59435515#0" to="-288513230#1"/>
    <trip id="veh69" type="veh_passenger" depart="492.41" departLane="best" from="1199657271#2" to="-424080772#1"/>
    <trip id="veh71" type="veh_passenger" depart="506.68" departLane="best" departSpeed="max" from="62646509#0" to="35920555#1"/>
    <trip id="veh74" type="veh_passenger" depart="528.09" departLane="best" from="-424080768#1" to="137364609#5"/>
    <trip id="veh75" type="veh_passenger" depart="535.23" departLane="best" from="-262962065#2" to="264351493#3"/>
    <trip id="veh76" type="veh_passenger" depart="542.36" departLane="best" from="450844939#2" to="424769177"/>
    <trip id="veh77" type="veh_passenger" depart="549.50" departLane="best" from="-858153863#1" to="-424080767#0"/>
    <trip id="veh79" type="veh_passenger" depart="563.77" departLane="best" departSpeed="max" from="59435515#0" to="1199657271#1"/>
    <trip id="veh80" type="veh_passenger" depart="570.91" departLane="best" from="1024185060#1" to="262962064#1"/>
    <trip id="veh81" type="veh_passenger" depart="578.04" departLane="best" from="-262962065#2" to="-12134222#4"/>
    <trip id="veh82" type="veh_passenger" depart="585.18" departLane="best" from="1200629381#1" to="62646494#2"/>
    <trip id="veh83" type="veh_passenger" depart="592.32" departLane="best" departSpeed="max" from="262962066#0" to="51049946#2"/>
    <trip id="veh84" type="veh_passenger" depart="599.45" departLane="best" from="-839725848#1" to="62646494#3"/>
    <trip id="veh87" type="veh_passenger" depart="620.86" departLane="best" from="1222833887#1" to="-858153863#3"/>
    <trip id="veh88" type="veh_passenger" depart="628.00" departLane="best" from="12134222#3" to="450844973#0"/>
    <trip id="veh89" type="veh_passenger" depart="635.13" departLane="best" from="-264351493#1" to="1222879917#0"/>
    <trip id="veh90" type="veh_passenger" depart="642.27" departLane="best" from="784598050#1" to="902647105"/>
    <trip id="veh92" type="veh_passenger" depart="656.54" departLane="best" from="-556958057#3" to="12140627#2"/>
    <trip id="veh93" type="veh_passenger" depart="663.68" departLane="best" from="-839725848#1" to="38502259#1"/>
    <trip id="veh94" type="veh_passenger" depart="670.82" departLane="best" from="357338497#2" to="450844936"/>
    <trip id="veh95" type="veh_passenger" depart="677.95" departLane="best" from="-264351493#4" to="38502259#1"/>
    <trip id="veh96" type="veh_passenger" depart="685.09" departLane="best" departSpeed="max" from="32118650" to="50033060#4"/>
    <trip id="veh98" type="veh_passenger" depart="699.36" departLane="best" from="-32118998#4" to="903721719#2"/>
    <trip id="veh99" type="veh_passenger" depart="706.50" departLane="best" from="388533145#3" to="424769177"/>
    <trip id="veh100" type="veh_passenger" depart="713.63" departLane="best" from="1199657271#1" to="-424799828#1"/>
    <trip id="veh102" type="veh_passenger" depart="727.91" departLane="best" from="262962065#1" to="38502259#1"/>
    <trip id="veh103" type="veh_passenger" depart="735.04" departLane="best" from="1199657271#2" to="1222833887#2"/>
    <trip id="veh104" type="veh_passenger" depart="742.18" departLane="best" from="-424801341#1" to="12140627#2"/>
    <trip id="veh106" type="veh_passenger" depart="756.45" departLane="best" from="30953025#2" to="1052604215"/>
    <trip id="veh108" type="veh_passenger" depart="770.72" departLane="best" from="1222833882#1" to="556958057#3"/>
    <trip id="veh110" type="veh_passenger" depart="785.00" departLane="best" from="424080766" to="858159498#0"/>
    <trip id="veh111" type="veh_passenger" depart="792.13" departLane="best" from="424801337#1" to="-12134222#3"/>
    <trip id="veh112" type="veh_passenger" depart="799.27" departLane="best" from="50033060#3" to="12140627#2"/>
    <trip id="veh113" type="veh_passenger" depart="806.41" departLane="best" from="424801338#0" to="63060727#1"/>
    <trip id="veh114" type="veh_passenger" depart="813.54" departLane="best" from="49991662#0" to="424769177"/>
    <trip id="veh115" type="veh_passenger" depart="820.68" departLane="best" from="424080772#0" to="357338496#3"/>
    <trip id="veh116" type="veh_passenger" depart="827.82" departLane="best" from="450827424#0" to="104526265#0"/>
    <trip id="veh117" type="veh_passenger" depart="834.95" departLane="best" from="424769177" to="12117702#1"/>
    <trip id="veh118" type="veh_passenger" depart="842.09" departLane="best" from="-262962065#2" to="-12134222#2"/>
    <trip id="veh119" type="veh_passenger" depart="849.22" departLane="best" from="12134222#0" to="450844956#1"/>
    <trip id="veh120" type="veh_passenger" depart="856.36" departLane="best" from="-262962058#0" to="1200629381#1"/>
    <trip id="veh121" type="veh_passenger" depart="863.50" departLane="best" from="1222879916#0" to="357338496#2"/>
    <trip id="veh122" type="veh_passenger" depart="870.63" departLane="best" departSpeed="max" from="262962066#0" to="-12134222#4"/>
    <trip id="veh123" type="veh_passenger" depart="877.77" departLane="best" from="30953025#3" to="556958057#4"/>
    <trip id="veh124" type="veh_passenger" depart="884.91" departLane="best" from="-62623987#0" to="357338487#9"/>
    <trip id="veh125" type="veh_passenger" depart="892.04" departLane="best" from="-55179413#2" to="38502259#1"/>
    <trip id="veh126" type="veh_passenger" depart="899.18" departLane="best" from="-556958057#1" to="450827405#0"/>
    <trip id="veh127" type="veh_passenger" depart="906.32" departLane="best" departSpeed="max" from="50033050#0" to="51049946#2"/>
    <trip id="veh128" type="veh_passenger" depart="913.45" departLane="best" from="62623959#0" to="1048465689#0"/>
    <trip id="veh129" type="veh_passenger" depart="920.59" departLane="best" from="1200629381#1" to="424080769#0"/>
    <trip id="veh130" type="veh_passenger" depart="927.72" departLane="best" from="49991649#0" to="556958057#4"/>
    <trip id="veh132" type="veh_passenger" depart="942.00" departLane="best" from="-556958057#3" to="62646499#1"/>
    <trip id="veh133" type="veh_passenger" depart="949.13" departLane="best" from="59435515#5" to="858153862#2"/>
    <trip id="veh135" type="veh_passenger" depart="963.41" departLane="best" departSpeed="max" from="1222833868#0" to="62646499#2"/>
    <trip id="veh136" type="veh_passenger" depart="970.54" departLane="best" from="50033050#1" to="51049946#3"/>
    <trip id="veh138" type="veh_passenger" depart="984.82" departLane="best" from="288513232" to="-424080772#0"/>
    <trip id="veh140" type="veh_passenger" depart="999.09" departLane="best" from="1199657268#0" to="49991660#0"/>
    <trip id="veh141" type="veh_passenger" depart="1006.22" departLane="best" departSpeed="max" from="50033050#0" to="1120549356#0"/>
    <trip id="veh142" type="veh_passenger" depart="1013.36" departLane="best" from="-1222833874#2" to="1021839713#0"/>
    <trip id="veh143" type="veh_passenger" depart="1020.50" departLane="best" departSpeed="max" from="1222833868#0" to="51049946#3"/>
    <trip id="veh144" type="veh_passenger" depart="1027.63" departLane="best" from="789134690#1" to="-12134222#4"/>
    <trip id="veh145" type="veh_passenger" depart="1034.77" departLane="best" from="-424799826#0" to="1222833892#1"/>
    <trip id="veh146" type="veh_passenger" depart="1041.91" departLane="best" from="858153862#5" to="357338487#10"/>
    <trip id="veh147" type="veh_passenger" depart="1049.04" departLane="best" departSpeed="max" from="62646509#0" to="-424769177"/>
    <trip id="veh148" type="veh_passenger" depart="1056.18" departLane="best" from="856813195#1" to="-858153864"/>
    <trip id="veh149" type="veh_passenger" depart="1063.31" departLane="best" from="789134688#0" to="12117702#1"/>
    <trip id="veh150" type="veh_passenger" depart="1070.45" departLane="best" from="424080772#1" to="137364609#5"/>
    <trip id="veh152" type="veh_passenger" depart="1084.72" departLane="best" from="388533657" to="30953497"/>
    <trip id="veh153" type="veh_passenger" depart="1091.86" departLane="best" from="-1222833892#1" to="38502259#1"/>
    <trip id="veh154" type="veh_passenger" depart="1099.00" departLane="best" from="-104526265#0" to="62646494#3"/>
    <trip id="veh156" type="veh_passenger" depart="1113.27" departLane="best" from="1222833879#1" to="-288513230#1"/>
    <trip id="veh158" type="veh_passenger" depart="1127.54" departLane="best" from="12202008#1" to="50033060#3"/>
    <trip id="veh160" type="veh_passenger" depart="1141.81" departLane="best" from="-12189045#2" to="1222839579"/>
    <trip id="veh162" type="veh_passenger" depart="1156.09" departLane="best" from="484842173" to="-424799826#0"/>
    <trip id="veh163" type="veh_passenger" depart="1163.22" departLane="best" from="62623960" to="388533144#2"/>
    <trip id="veh164" type="veh_passenger" depart="1170.36" departLane="best" from="12183170#0" to="357338496#1"/>
    <trip id="veh165" type="veh_passenger" depart="1177.50" departLane="best" from="-104526265#0" to="12134479#4"/>
    <trip id="veh166" type="veh_passenger" depart="1184.63" departLane="best" departSpeed="max" from="262962066#0" to="38502259#1"/>
    <trip id="veh167" type="veh_passenger" depart="1191.77" departLane="best" from="424801337#1" to="264351493#1"/>
    <trip id="veh168" type="veh_passenger" depart="1198.91" departLane="best" departSpeed="max" from="262962066#0" to="1052604215"/>
    <trip id="veh169" type="veh_passenger" depart="1206.04" departLane="best" from="288513230#0" to="62203497#3"/>
    <trip id="veh170" type="veh_passenger" depart="1213.18" departLane="best" departSpeed="max" from="50033050#0" to="-784598050#0"/>
    <trip id="veh171" type="veh_passenger" depart="1220.31" departLane="best" from="32121146#1" to="32118998#2"/>
    <trip id="veh172" type="veh_passenger" depart="1227.45" departLane="best" from="424769177" to="12187610#1"/>
    <trip id="veh173" type="veh_passenger" depart="1234.59" departLane="best" from="50033060#3" to="450844939#1"/>
    <trip id="veh174" type="veh_passenger" depart="1241.72" departLane="best" from="424986163#0" to="1119787749"/>
    <trip id="veh175" type="veh_passenger" depart="1248.86" departLane="best" from="104526265#0" to="-1222833879#1"/>
    <trip id="veh176" type="veh_passenger" depart="1256.00" departLane="best" from="1199657271#4" to="279870839#1"/>
    <trip id="veh177" type="veh_passenger" depart="1263.13" departLane="best" from="556958057#3" to="-30953025#1"/>
    <trip id="veh178" type="veh_passenger" depart="1270.27" departLane="best" from="137364609#2" to="388533145#1"/>
    <trip id="veh179" type="veh_passenger" depart="1277.41" departLane="best" from="1031067191" to="424801337#1"/>
    <trip id="veh182" type="veh_passenger" depart="1298.81" departLane="best" from="858153864" to="-784598050#2"/>
    <trip id="veh183" type="veh_passenger" depart="1305.95" departLane="best" from="34685684#1" to="262962068#1"/>
    <trip id="veh184" type="veh_passenger" depart="1313.09" departLane="best" from="-264351493#2" to="-484842173"/>
    <trip id="veh185" type="veh_passenger" depart="1320.22" departLane="best" from="424801338#1" to="858159498#0"/>
    <trip id="veh186" type="veh_passenger" depart="1327.36" departLane="best" from="388533145#3" to="63060727#1"/>
    <trip id="veh187" type="veh_passenger" depart="1334.50" departLane="best" from="62203498#0" to="388533144#14"/>
    <trip id="veh189" type="veh_passenger" depart="1348.77" departLane="best" from="51049946#2" to="357338496#1"/>
    <trip id="veh190" type="veh_passenger" depart="1355.90" departLane="best" from="62623959#0" to="450827424#0"/>
    <trip id="veh192" type="veh_passenger" depart="1370.18" departLane="best" from="450844982#1" to="32119915#4"/>
    <trip id="veh193" type="veh_passenger" depart="1377.31" departLane="best" from="424080772#1" to="-12134222#10"/>
    <trip id="veh194" type="veh_passenger" depart="1384.45" departLane="best" from="-32118998#2" to="34685684#1"/>
    <trip id="veh195" type="veh_passenger" depart="1391.59" departLane="best" from="12134479#2" to="12166276#2"/>
    <trip id="veh196" type="veh_passenger" depart="1398.72" departLane="best" from="357338497#1" to="-55179413#2"/>
    <trip id="veh197" type="veh_passenger" depart="1405.86" departLane="best" from="1199657270#1" to="424801337#1"/>
    <trip id="veh198" type="veh_passenger" depart="1413.00" departLane="best" from="450695475#0" to="283621822#0"/>
    <trip id="veh200" type="veh_passenger" depart="1427.27" departLane="best" from="262962065#1" to="62203498#0"/>
    <trip id="veh201" type="veh_passenger" depart="1434.40" departLane="best" from="388533144#7" to="424801337#1"/>
    <trip id="veh202" type="veh_passenger" depart="1441.54" departLane="best" departSpeed="max" from="59435515#0" to="450844947#1"/>
    <trip id="veh203" type="veh_passenger" depart="1448.68" departLane="best" from="1222833887#2" to="-12134222#2"/>
    <trip id="veh204" type="veh_passenger" depart="1455.81" departLane="best" from="1222833874#1" to="450844939#1"/>
    <trip id="veh205" type="veh_passenger" depart="1462.95" departLane="best" from="556958057#4" to="-784598040"/>
    <trip id="veh206" type="veh_passenger" depart="1470.09" departLane="best" from="262962065#1" to="450844936"/>
    <trip id="veh209" type="veh_passenger" depart="1491.50" departLane="best" departSpeed="max" from="262962066#0" to="1222879896#2"/>
    <trip id="veh210" type="veh_passenger" depart="1498.63" departLane="best" departSpeed="max" from="1222833868#0" to="-424799825"/>
    <trip id="veh212" type="veh_passenger" depart="1512.90" departLane="best" from="279870839#2" to="450827405#0"/>
    <trip id="veh213" type="veh_passenger" depart="1520.04" departLane="best" from="-424080769#0" to="1222833892#1"/>
    <trip id="veh214" type="veh_passenger" depart="1527.18" departLane="best" from="1222879916#0" to="35920555#0"/>
    <trip id="veh215" type="veh_passenger" depart="1534.31" departLane="best" from="1222839571#0" to="388533145#5"/>
    <trip id="veh216" type="veh_passenger" depart="1541.45" departLane="best" from="-55179413#2" to="262962068#1"/>
    <trip id="veh217" type="veh_passenger" depart="1548.59" departLane="best" from="-262962068#1" to="-1222833879#1"/>
    <trip id="veh218" type="veh_passenger" depart="1555.72" departLane="best" from="450844979#1" to="-1222833879#1"/>
    <trip id="veh220" type="veh_passenger" depart="1570.00" departLane="best" from="12117702#1" to="32118998#4"/>
    <trip id="veh221" type="veh_passenger" depart="1577.13" departLane="best" from="-12189045#2" to="357338487#10"/>
    <trip id="veh223" type="veh_passenger" depart="1591.40" departLane="best" from="424801337#0" to="450844973#0"/>
    <trip id="veh224" type="veh_passenger" depart="1598.54" departLane="best" from="424801337#0" to="450844939#1"/>
    <trip id="veh225" type="veh_passenger" depart="1605.68" departLane="best" from="62646509#1" to="1031067191"/>
    <trip id="veh226" type="veh_passenger" depart="1612.81" departLane="best" from="484842173" to="424080773#0"/>
    <trip id="veh227" type="veh_passenger" depart="1619.95" departLane="best" from="388533142#3" to="1052604215"/>
    <trip id="veh228" type="veh_passenger" depart="1627.09" departLane="best" from="450695460#0" to="450844953#1"/>
    <trip id="veh229" type="veh_passenger" depart="1634.22" departLane="best" from="784598050#2" to="388533144#1"/>
    <trip id="veh230" type="veh_passenger" depart="1641.36" departLane="best" from="450844965#0" to="-424769177"/>
    <trip id="veh232" type="veh_passenger" depart="1655.63" departLane="best" from="12189453#1" to="424769182"/>
    <trip id="veh233" type="veh_passenger" depart="1662.77" departLane="best" from="450827424#0" to="-30953025#3"/>
    <trip id="veh234" type="veh_passenger" depart="1669.90" departLane="best" from="42706874#2" to="388533144#8"/>
    <trip id="veh235" type="veh_passenger" depart="1677.04" departLane="best" from="-424080769#0" to="450844956#2"/>
    <trip id="veh236" type="veh_passenger" depart="1684.18" departLane="best" from="-424801341#1" to="858153863#1"/>
    <trip id="veh238" type="veh_passenger" depart="1698.45" departLane="best" departSpeed="max" from="262962066#0" to="1222833875#1"/>
    <trip id="veh239" type="veh_passenger" depart="1705.59" departLane="best" from="-32118998#3" to="12202008#1"/>
    <trip id="veh240" type="veh_passenger" depart="1712.72" departLane="best" from="-556958057#3" to="-49991662#0"/>
    <trip id="veh242" type="veh_passenger" depart="1726.99" departLane="best" from="-262962058#0" to="49991666#1"/>
    <trip id="veh243" type="veh_passenger" depart="1734.13" departLane="best" from="450695475#0" to="137364609#5"/>
    <trip id="veh244" type="veh_passenger" depart="1741.27" departLane="best" from="12134479#1" to="-484953514#1"/>
    <trip id="veh245" type="veh_passenger" depart="1748.40" departLane="best" from="450695475#0" to="-288513230#1"/>
    <trip id="veh246" type="veh_passenger" depart="1755.54" departLane="best" departSpeed="max" from="262962066#0" to="137364609#2"/>
    <trip id="veh247" type="veh_passenger" depart="1762.68" departLane="best" from="51049946#2" to="-32121146#1"/>
    <trip id="veh249" type="veh_passenger" depart="1776.95" departLane="best" from="-279870835#3" to="388533144#11"/>
    <trip id="veh250" type="veh_passenger" depart="1784.09" departLane="best" from="-556958057#3" to="902647105"/>
    <trip id="veh252" type="veh_passenger" depart="1798.36" departLane="best" departSpeed="max" from="1222833868#0" to="556958057#3"/>
    <trip id="veh253" type="veh_passenger" depart="1805.49" departLane="best" from="-12134222#7" to="63060727#1"/>
    <trip id="veh254" type="veh_passenger" depart="1812.63" departLane="best" from="42706874#2" to="388533657"/>
    <trip id="veh256" type="veh_passenger" depart="1826.90" departLane="best" from="388533144#6" to="-279870835#1"/>
    <trip id="veh258" type="veh_passenger" depart="1841.18" departLane="best" from="12117702#1" to="-424799828#1"/>
    <trip id="veh259" type="veh_passenger" depart="1848.31" departLane="best" from="1024185060#1" to="-424799826#0"/>
    <trip id="veh260" type="veh_passenger" depart="1855.45" departLane="best" from="357338496#3" to="450844947#1"/>
    <trip id="veh261" type="veh_passenger" depart="1862.58" departLane="best" from="1020856085#0" to="1052604215"/>
    <trip id="veh262" type="veh_passenger" depart="1869.72" departLane="best" from="30953025#4" to="450695460#0"/>
    <trip id="veh263" type="veh_passenger" depart="1876.86" departLane="best" from="12144152#1" to="424080768#1"/>
    <trip id="veh264" type="veh_passenger" depart="1883.99" departLane="best" from="1031067191" to="1120549356#0"/>
    <trip id="veh265" type="veh_passenger" depart="1891.13" departLane="best" from="-903721719#0" to="-12168663#1"/>
    <trip id="veh266" type="veh_passenger" depart="1898.27" departLane="best" from="856813195#1" to="357338496#3"/>
    <trip id="veh267" type="veh_passenger" depart="1905.40" departLane="best" from="450695460#0" to="424801341#0"/>
    <trip id="veh268" type="veh_passenger" depart="1912.54" departLane="best" from="62093806#0" to="-30953025#2"/>
    <trip id="veh270" type="veh_passenger" depart="1926.81" departLane="best" from="-283621822#2" to="137364609#5"/>
    <trip id="veh271" type="veh_passenger" depart="1933.95" departLane="best" departSpeed="max" from="62646509#0" to="279870839#2"/>
    <trip id="veh272" type="veh_passenger" depart="1941.08" departLane="best" from="50033060#4" to="1222833892#1"/>
    <trip id="veh273" type="veh_passenger" depart="1948.22" departLane="best" from="264351493#2" to="556958057#0"/>
    <trip id="veh274" type="veh_passenger" depart="1955.36" departLane="best" from="388533142#3" to="12144152#1"/>
    <trip id="veh275" type="veh_passenger" depart="1962.49" departLane="best" from="-902647105" to="-424799826#0"/>
    <trip id="veh276" type="veh_passenger" depart="1969.63" departLane="best" from="450844982#1" to="388533144#1"/>
    <trip id="veh277" type="veh_passenger" depart="1976.77" departLane="best" from="49991666#1" to="1119787749"/>
    <trip id="veh279" type="veh_passenger" depart="1991.04" departLane="best" departSpeed="max" from="262962066#0" to="51049946#2"/>
    <trip id="veh280" type="veh_passenger" depart="1998.18" departLane="best" from="424080769#0" to="388533144#11"/>
    <trip id="veh281" type="veh_passenger" depart="2005.31" departLane="best" from="1222879916#0" to="63060727#1"/>
    <trip id="veh282" type="veh_passenger" depart="2012.45" departLane="best" from="1060454218" to="1048465689#0"/>
    <trip id="veh283" type="veh_passenger" depart="2019.58" departLane="best" from="424801337#2" to="556958057#3"/>
    <trip id="veh284" type="veh_passenger" depart="2026.72" departLane="best" from="-858153863#3" to="-30953025#2"/>
    <trip id="veh285" type="veh_passenger" depart="2033.86" departLane="best" from="-104526265#0" to="-262962065#1"/>
    <trip id="veh286" type="veh_passenger" depart="2040.99" departLane="best" from="450695461#0" to="262962065#2"/>
    <trip id="veh287" type="veh_passenger" depart="2048.13" departLane="best" departSpeed="max" from="42706874#0" to="62646494#2"/>