<?xml version="1.0" encoding="UTF-8"?>

<!-- generated on 2023-11-21 14:50:23.729725 by osmWebWizard.py v1_19_0+0000-baa66a0f364
<configuration>
    <net-file value="C:\Users\hanme\Sumo\2023-11-21-14-50-12\osm.net.xml.gz"/>
    <output-trip-file value="C:\Users\hanme\Sumo\2023-11-21-14-50-12\osm.truck.trips.xml"/>
    <route-file value="C:\Users\hanme\Sumo\2023-11-21-14-50-12\osm.truck.rou.xml"/>
    <prefix value="truck"/>
    <trip-attributes value="departLane=&quot;best&quot;"/>
    <fringe-start-attributes value="departSpeed=&quot;max&quot;"/>
    <vehicle-class value="truck"/>
    <fringe-factor value="5"/>
    <vclass value="truck"/>
    <via-edge-types value="highway.motorway,highway.motorway_link,highway.trunk_link,highway.primary_link,highway.secondary_link,highway.tertiary_link"/>
    <min-distance value="600.0"/>
    <min-distance.fringe value="10.0"/>
    <remove-loops value="True"/>
    <validate value="True"/>
    <insertion-density value="8.0"/>
</configuration>
-->

<!-- generated on 2023-11-21 14:50:23 by Eclipse SUMO duarouter Version 1.19.0
<configuration xmlns:xsi="http://www.w3.org/2001/XMLSchema-instance" xsi:noNamespaceSchemaLocation="http://sumo.dlr.de/xsd/duarouterConfiguration.xsd">

    <input>
        <net-file value="C:\Users\hanme\Sumo\2023-11-21-14-50-12\osm.net.xml.gz"/>
        <route-files value="C:\Users\hanme\Sumo\2023-11-21-14-50-12\osm.truck.trips.xml"/>
    </input>

    <output>
        <output-file value="C:\Users\hanme\Sumo\2023-11-21-14-50-12\osm.truck.trips.xml.tmp"/>
        <alternatives-output value="NUL"/>
        <write-trips value="true"/>
    </output>

    <processing>
        <remove-loops value="true"/>
    </processing>

    <time>
        <begin value="0.0"/>
        <end value="3600.0"/>
    </time>

    <report>
        <no-warnings value="true"/>
        <ignore-errors value="true"/>
        <no-step-log value="true"/>
    </report>

</configuration>
-->

<routes xmlns:xsi="http://www.w3.org/2001/XMLSchema-instance" xsi:noNamespaceSchemaLocation="http://sumo.dlr.de/xsd/routes_file.xsd">
    <vType id="truck_truck" vClass="truck"/>
    <trip id="truck0" type="truck_truck" depart="0.00" departLane="best" from="388533657" to="12187610#1"/>
    <trip id="truck1" type="truck_truck" depart="10.70" departLane="best" from="12117702#1" to="-903721719#2"/>
    <trip id="truck2" type="truck_truck" depart="21.41" departLane="best" from="450844956#2" to="388533144#8"/>
    <trip id="truck3" type="truck_truck" depart="32.11" departLane="best" from="-903721719#0" to="357338487#10"/>
    <trip id="truck4" type="truck_truck" depart="42.82" departLane="best" from="50033060#3" to="-12134222#10"/>
    <trip id="truck5" type="truck_truck" depart="53.52" departLane="best" from="-12189045#2" to="450827405#0"/>
    <trip id="truck6" type="truck_truck" depart="64.23" departLane="best" from="789134690#1" to="12150608#1"/>
    <trip id="truck7" type="truck_truck" depart="74.93" departLane="best" departSpeed="max" from="59435515#0" to="357338487#8"/>
    <trip id="truck8" type="truck_truck" depart="85.64" departLane="best" from="50033060#2" to="424801337#1"/>
    <trip id="truck9" type="truck_truck" depart="96.34" departLane="best" departSpeed="max" from="32118650" to="858153862#4"/>
    <trip id="truck11" type="truck_truck" depart="117.75" departLane="best" from="-556958057#0" to="357338497#2"/>
    <trip id="truck12" type="truck_truck" depart="128.45" departLane="best" from="1020856085#0" to="12117702#3"/>
    <trip id="truck14" type="truck_truck" depart="149.86" departLane="best" departSpeed="max" from="1222833868#0" to="858153863#1"/>
    <trip id="truck15" type="truck_truck" depart="160.57" departLane="best" from="1199657271#4" to="63060727#1"/>
    <trip id="truck16" type="truck_truck" depart="171.27" departLane="best" from="424080767#0" to="357338496#1"/>
    <trip id="truck17" type="truck_truck" depart="181.98" departLane="best" from="556958049#1" to="424801337#1"/>
    <trip id="truck18" type="truck_truck" depart="192.68" departLane="best" from="484953513#1" to="12202008#1"/>
    <trip id="truck19" type="truck_truck" depart="203.39" departLane="best" from="858159498#1" to="38502259#1"/>
    <trip id="truck20" type="truck_truck" depart="214.09" departLane="best" from="12144152#3" to="1199657271#1"/>
    <trip id="truck21" type="truck_truck" depart="224.79" departLane="best" from="-858153863#1" to="-784598050#0"/>
    <trip id="truck23" type="truck_truck" depart="246.20" departLane="best" from="424080772#1" to="1222833869#1"/>
    <trip id="truck24" type="truck_truck" depart="256.91" departLane="best" from="62646494#2" to="1222879916#0"/>
    <trip id="truck25" type="truck_truck" depart="267.61" departLane="best" from="1199657271#3" to="1052604215"/>
    <trip id="truck26" type="truck_truck" depart="278.32" departLane="best" from="357338496#3" to="62203498#1"/>
    <trip id="truck27" type="truck_truck" depart="289.02" departLane="best" from="903721719#1" to="-1222879914#0"/>
    <trip id="truck28" type="truck_truck" depart="299.73" departLane="best" from="30953025#4" to="35920555#1"/>
    <trip id="truck29" type="truck_truck" depart="310.43" departLane="best" departSpeed="max" from="50033050#0" to="1222833882#1"/>
    <trip id="truck30" type="truck_truck" depart="321.14" departLane="best" from="12134222#3" to="-424799826#0"/>
    <trip id="truck31" type="truck_truck" depart="331.84" departLane="best" from="424801337#2" to="-30953025#2"/>
    <trip id="truck32" type="truck_truck" depart="342.54" departLane="best" from="1199657271#4" to="38502259#1"/>
    <trip id="truck34" type="truck_truck" depart="363.95" departLane="best" from="62646494#1" to="556958057#1"/>
    <trip id="truck35" type="truck_truck" depart="374.66" departLane="best" from="12134479#1" to="38502259#1"/>
    <trip id="truck36" type="truck_truck" depart="385.36" departLane="best" from="388533144#1" to="424801341#0"/>
    <trip id="truck37" type="truck_truck" depart="396.07" departLane="best" from="484953513#1" to="-30953025#3"/>
    <trip id="truck38" type="truck_truck" depart="406.77" departLane="best" from="-104526265#0" to="12140627#2"/>
    <trip id="truck40" type="truck_truck" depart="428.18" departLane="best" from="-264351493#5" to="262962064#1"/>
    <trip id="truck41" type="truck_truck" depart="438.88" departLane="best" from="484953514#0" to="-424080761#0"/>
    <trip id="truck42" type="truck_truck" depart="449.59" departLane="best" from="1199657271#3" to="556958057#2"/>
    <trip id="truck43" type="truck_truck" depart="460.29" departLane="best" departSpeed="max" from="32118650" to="424801337#1"/>
    <trip id="truck44" type="truck_truck" depart="471.00" departLane="best" from="903721719#0" to="38502259#1"/>
    <trip id="truck46" type="truck_truck" depart="492.41" departLane="best" from="-32121049#1" to="1020856085#0"/>
    <trip id="truck47" type="truck_truck" depart="503.11" departLane="best" from="-12189045#1" to="357338487#10"/>
    <trip id="truck49" type="truck_truck" depart="524.52" departLane="best" from="59435515#5" to="262962065#2"/>
    <trip id="truck50" type="truck_truck" depart="535.23" departLane="best" from="104526265#0" to="388533144#2"/>
    <trip id="truck51" type="truck_truck" depart="545.93" departLane="best" from="288513230#0" to="1222833892#1"/>
    <trip id="truck54" type="truck_truck" depart="578.04" departLane="best" from="59435515#6" to="1052604215"/>
    <trip id="truck55" type="truck_truck" depart="588.75" departLane="best" from="-62623987#0" to="1222879894#1"/>
    <trip id="truck58" type="truck_truck" depart="620.86" departLane="best" from="32119915#4" to="1222879896#1"/>
    <trip id="truck59" type="truck_truck" depart="631.57" departLane="best" from="858153862#3" to="63060727#0"/>
    <trip id="truck60" type="truck_truck" depart="642.27" departLane="best" departSpeed="max" from="59435515#0" to="-49991662#0"/>
    <trip id="truck61" type="truck_truck" depart="652.98" departLane="best" from="1222833882#0" to="-1222879914#1"/>
    <trip id="truck63" type="truck_truck" depart="674.38" departLane="best" from="-424801341#1" to="-12134222#2"/>
    <trip id="truck64" type="truck_truck" depart="685.09" departLane="best" from="279870839#2" to="51049946#1"/>
    <trip id="truck66" type="truck_truck" depart="706.50" departLane="best" from="62623959#2" to="1052604215"/>
    <trip id="truck68" type="truck_truck" depart="727.91" departLane="best" from="784598050#2" to="424769182"/>
    <trip id="truck69" type="truck_truck" depart="738.61" departLane="best" from="424799828#1" to="-12134222#3"/>
    <trip id="truck70" type="truck_truck" depart="749.32" departLane="best" from="-262962068#1" to="1222879916#0"/>
    <trip id="truck71" type="truck_truck" depart="760.02" departLane="best" from="-262962068#1" to="-858153864"/>
    <trip id="truck72" type="truck_truck" depart="770.72" departLane="best" from="1199657271#4" to="63060727#1"/>
    <trip id="truck73" type="truck_truck" depart="781.43" departLane="best" departSpeed="max" from="1222833868#0" to="-484842173"/>
    <trip id="truck74" type="truck_truck" depart="792.13" departLane="best" from="388533144#11" to="858159498#0"/>
    <trip id="truck75" type="truck_truck" depart="802.84" departLane="best" from="424080772#0" to="-12134222#2"/>
    <trip id="truck76" type="truck_truck" depart="813.54" departLane="best" from="-262962058#0" to="63060727#1"/>
    <trip id="truck77" type="truck_truck" depart="824.25" departLane="best" from="424080767#0" to="32118998#4"/>
    <trip id="truck79" type="truck_truck" depart="845.66" departLane="best" from="1020856085#0" to="357338487#9"/>
    <trip id="truck80" type="truck_truck" depart="856.36" departLane="best" from="-450827405#1" to="784599710"/>
    <trip id="truck82" type="truck_truck" depart="877.77" departLane="best" departSpeed="max" from="59435515#0" to="283621822#0"/>
    <trip id="truck84" type="truck_truck" depart="899.18" departLane="best" from="12134222#0" to="450844953#1"/>
    <trip id="truck87" type="truck_truck" depart="931.29" departLane="best" from="1222879916#0" to="-12134222#3"/>
    <trip id="truck89" type="truck_truck" depart="952.70" departLane="best" departSpeed="max" from="62634019" to="30953251"/>
    <trip id="truck90" type="truck_truck" depart="963.41" departLane="best" from="-424799825" to="-424080761#0"/>
    <trip id="truck92" type="truck_truck" depart="984.82" departLane="best" from="50033050#2" to="55179413#2"/>
    <trip id="truck93" type="truck_truck" depart="995.52" departLane="best" departSpeed="max" from="62634019" to="-858153863#3"/>
    <trip id="truck94" type="truck_truck" depart="1006.22" departLane="best" from="1199657268#0" to="-30953025#2"/>
    <trip id="truck95" type="truck_truck" depart="1016.93" departLane="best" from="50033030#0" to="59435515#5"/>
    <trip id="truck96" type="truck_truck" depart="1027.63" departLane="best" from="1222833887#0" to="357338497#3"/>
    <trip id="truck97" type="truck_truck" depart="1038.34" departLane="best" from="62093806#0" to="858153862#6"/>
    <trip id="truck99" type="truck_truck" depart="1059.75" departLane="best" from="12183170#0" to="63060727#1"/>
    <trip id="truck101" type="truck_truck" depart="1081.16" departLane="best" from="50033060#4" to="1199657271#1"/>
    <trip id="truck103" type="truck_truck" depart="1102.56" departLane="best" from="-903721719#1" to="49991660#0"/>
    <trip id="truck104" type="truck_truck" depart="1113.27" departLane="best" from="50033050#2" to="1021839713#0"/>
    <trip id="truck105" type="truck_truck" depart="1123.97" departLane="best" from="12168663#2" to="-784598040"/>
    <trip id="truck106" type="truck_truck" depart="1134.68" departLane="best" from="424080761#0" to="1222833869#2"/>
    <trip id="truck108" type="truck_truck" depart="1156.09" departLane="best" from="858153862#3" to="556958057#2"/>
    <trip id="truck110" type="truck_truck" depart="1177.50" departLane="best" from="30953025#3" to="-1222839571#1"/>
    <trip id="truck111" type="truck_truck" depart="1188.20" departLane="best" from="1199657270#0" to="-424080772#1"/>
    <trip id="truck113" type="truck_truck" depart="1209.61" departLane="best" departSpeed="max" from="32118650" to="-424799826#0"/>
    <trip id="truck114" type="truck_truck" depart="1220.31" departLane="best" departSpeed="max" from="1222833868#0" to="262962065#2"/>
    <trip id="truck115" type="truck_truck" depart="1231.02" departLane="best" from="386547298#1" to="1222833882#0"/>
    <trip id="truck116" type="truck_truck" depart="1241.72" departLane="best" from="784598040" to="388533144#8"/>
    <trip id="truck117" type="truck_truck" depart="1252.43" departLane="best" departSpeed="max" from="62634019" to="357338497#1"/>
    <trip id="truck119" type="truck_truck" depart="1273.84" departLane="best" from="-104526265#0" to="12117702#2"/>
    <trip id="truck122" type="truck_truck" depart="1305.95" departLane="best" from="50033050#2" to="-556958049#1"/>
    <trip id="truck123" type="truck_truck" depart="1316.65" departLane="best" from="424801336#0" to="1020856085#0"/>
    <trip id="truck124" type="truck_truck" depart="1327.36" departLane="best" from="784598050#0" to="12187610#1"/>
    <trip id="truck126" type="truck_truck" depart="1348.77" departLane="best" departSpeed="max" from="59435515#0" to="262962068#1"/>
    <trip id="truck127" type="truck_truck" depart="1359.47" departLane="best" from="424080772#1" to="-12134222#10"/>
    <trip id="truck128" type="truck_truck" depart="1370.18" departLane="best" from="450844982#1" to="388533143#1"/>
    <trip id="truck130" type="truck_truck" depart="1391.59" departLane="best" from="30953025#1" to="1222879896#1"/>
    <trip id="truck131" type="truck_truck" depart="1402.29" departLane="best" from="-262962062" to="484953513#1"/>
    <trip id="truck132" type="truck_truck" depart="1413.00" departLane="best" from="62623959#2" to="357338496#3"/>
    <trip id="truck133" type="truck_truck" depart="1423.70" departLane="best" from="450827424#0" to="264351493#4"/>
    <trip id="truck135" type="truck_truck" depart="1445.11" departLane="best" departSpeed="max" from="262962066#0" to="858153863#1"/>
    <trip id="truck136" type="truck_truck" depart="1455.81" departLane="best" from="1120549356#0" to="38502259#0"/>
    <trip id="truck137" type="truck_truck" depart="1466.52" departLane="best" from="484953514#0" to="279870839#2"/>
    <trip id="truck138" type="truck_truck" depart="1477.22" departLane="best" from="388533145#1" to="1199657271#4"/>
    <trip id="truck139" type="truck_truck" depart="1487.93" departLane="best" from="-32118998#2" to="-424080772#0"/>
    <trip id="truck140" type="truck_truck" depart="1498.63" departLane="best" from="1222839571#0" to="839725848#1"/>
    <trip id="truck141" type="truck_truck" depart="1509.34" departLane="best" from="357338496#3" to="424080766"/>
    <trip id="truck142" type="truck_truck" depart="1520.04" departLane="best" from="59435515#1" to="450844939#2"/>
    <trip id="truck144" type="truck_truck" depart="1541.45" departLane="best" from="388533144#7" to="12189045#1"/>
    <trip id="truck145" type="truck_truck" depart="1552.15" departLane="best" from="-424080768#1" to="1222879917#0"/>
    <trip id="truck146" type="truck_truck" depart="1562.86" departLane="best" from="-858153863#1" to="12140627#2"/>
    <trip id="truck147" type="truck_truck" depart="1573.56" departLane="best" from="484953512" to="12202008#1"/>
    <trip id="truck149" type="truck_truck" depart="1594.97" departLane="best" from="424080768#1" to="450844973#0"/>
    <trip id="truck150" type="truck_truck" depart="1605.68" departLane="best" from="424080769#0" to="450695475#0"/>
    <trip id="truck151" type="truck_truck" depart="1616.38" departLane="best" from="450844979#1" to="32118998#4"/>
    <trip id="truck152" type="truck_truck" depart="1627.09" departLane="best" from="30953025#3" to="12187610#1"/>
    <trip id="truck153" type="truck_truck" depart="1637.79" departLane="best" from="789134690#1" to="1222833869#1"/>
    <trip id="truck154" type="truck_truck" depart="1648.49" departLane="best" from="424986163#0" to="35920555#1"/>
    <trip id="truck155" type="truck_truck" depart="1659.20" departLane="best" from="30953025#1" to="450844956#1"/>
    <trip id="truck156" type="truck_truck" depart="1669.90" departLane="best" departSpeed="max" from="59435515#0" to="357338487#5"/>
    <trip id="truck158" type="truck_truck" depart="1691.31" departLane="best" from="1222879916#0" to="12189045#1"/>
    <trip id="truck160" type="truck_truck" depart="1712.72" departLane="best" departSpeed="max" from="59435515#0" to="-49991662#0"/>
    <trip id="truck161" type="truck_truck" depart="1723.43" departLane="best" from="30953025#2" to="839725848#1"/>
    <trip id="truck162" type="truck_truck" depart="1734.13" departLane="best" from="388533145#4" to="-49991662#0"/>
    <trip id="truck163" type="truck_truck" depart="1744.84" departLane="best" from="42706874#3" to="-1222839571#1"/>
    <trip id="truck164" type="truck_truck" depart="1755.54" departLane="best" from="450844956#1" to="858153862#1"/>
    <trip id="truck165" type="truck_truck" depart="1766.24" departLane="best" from="1200629381#1" to="49991649#2"/>
    <trip id="truck166" type="truck_truck" depart="1776.95" departLane="best" departSpeed="max" from="32118650" to="-194358833#1"/>
    <trip id="truck168" type="truck_truck" depart="1798.36" departLane="best" departSpeed="max" from="262962066#0" to="357338496#2"/>
    <trip id="truck169" type="truck_truck" depart="1809.06" departLane="best" from="1222833869#2" to="12189045#2"/>
    <trip id="truck170" type="truck_truck" depart="1819.77" departLane="best" departSpeed="max" from="59435515#0" to="556958058#1"/>
    <trip id="truck172" type="truck_truck" depart="1841.18" departLane="best" from="12134222#3" to="-784598050#2"/>
    <trip id="truck173" type="truck_truck" depart="1851.88" departLane="best" from="-264351493#4" to="450827424#0"/>
    <trip id="truck174" type="truck_truck" depart="1862.58" departLane="best" from="424986163#0" to="38502259#1"/>
    <trip id="truck175" type="truck_truck" depart="1873.29" departLane="best" from="-264351493#5" to="-484842173"/>
    <trip id="truck176" type="truck_truck" depart="1883.99" departLane="best" departSpeed="max" from="32118650" to="1222833887#0"/>
    <trip id="truck177" type="truck_truck" depart="1894.70" departLane="best" from="450844979#0" to="12144152#1"/>
    <trip id="truck178" type="truck_truck" depart="1905.40" departLane="best" departSpeed="max" from="42706874#0" to="1199657271#2"/>
    <trip id="truck179" type="truck_truck" depart="1916.11" departLane="best" from="-62623987#1" to="-32121049#1"/>
    <trip id="truck180" type="truck_truck" depart="1926.81" departLane="best" from="-556958058#1" to="902647105"/>
    <trip id="truck181" type="truck_truck" depart="1937.52" departLane="best" from="-264351493#2" to="424801336#0"/>
    <trip id="truck182" type="truck_truck" depart="1948.22" departLane="best" from="12134222#0" to="-30953025#1"/>
    <trip id="truck183" type="truck_truck" depart="1958.93" departLane="best" from="-556958057#2" to="-12134222#4"/>
    <trip id="truck184" type="truck_truck" depart="1969.63" departLane="best" departSpeed="max" from="32118650" to="1199657271#4"/>
    <trip id="truck187" type="truck_truck" depart="2001.74" departLane="best" departSpeed="max" from="262962066#0" to="1222839579"/>
    <trip id="truck188" type="truck_truck" depart="2012.45" departLane="best" from="784598040" to="137364609#5"/>
    <trip id="truck189" type="truck_truck" depart="2023.15" departLane="best" from="-1222879912" to="-424799826#0"/>
    <trip id="truck190" type="truck_truck" depart="2033.86" departLane="best" from="34685684#1" to="-12134222#7"/>
    <trip id="truck191" type="truck_truck" depart="2044.56" departLane="best" departSpeed="max" from="50033050#0" to="1020856085#0"/>
    <trip id="truck192" type="truck_truck" depart="2055.27" departLane="best" from="30953025#3" to="1222879896#1"/>
    <trip id="truck194" type="truck_truck" depart="2076.68" departLane="best" from="424769177" to="450827405#0"/>
    <trip id="truck195" type="truck_truck" depart="2087.38" departLane="best" from="12134222#0" to="1222879896#1"/>
    <trip id="truck197" type="truck_truck" depart="2108.79" departLane="best" from="1024185060#1" to="-424080772#0"/>
    <trip id="truck199" type="truck_truck" depart="2130.20" departLane="best" departSpeed="max" from="50033050#0" to="35920555#1"/>
    <trip id="truck200" type="truck_truck" depart="2140.90" departLane="best" from="424769177" to="63060727#1"/>
    <trip id="truck202" type="truck_truck" depart="2162.31" departLane="best" from="484953514#0" to="34685684#1"/>
    <trip id="truck203" type="truck_truck" depart="2173.02" departLane="best" from="450844979#1" to="32119919#1"/>
    <trip id="truck204" type="truck_truck" depart="2183.72" departLane="best" from="12134222#2" to="-386547298#1"/>
    <trip id="truck205" type="truck_truck" depart="2194.42" departLane="best" from="-424801341#1" to="-424080767#0"/>
    <trip id="truck206" type="truck_truck" depart="2205.13" departLane="best" from="784598050#0" to="264351493#2"/>
    <trip id="truck207" type="truck_truck" depart="2215.83" departLane="best" from="-1222833879#1" to="1222833892#1"/>
    <trip id="truck208" type="truck_truck" depart="2226.54" departLane="best" from="-556958057#2" to="-32121049#1"/>
    <trip id="truck209" type="truck_truck" depart="2237.24" departLane="best" from="-784599711" to="-903721719#2"/>
    <trip id="truck210" type="truck_truck" depart="2247.95" departLane="best" from="424799828#1" to="1199657271#2"/>
    <trip id="truck211" type="truck_truck" depart="2258.65" departLane="best" from="62646494#3" to="556958058#1"/>
    <trip id="truck212" type="truck_truck" depart="2269.36" departLane="best" from="357338496#3" to="35920555#1"/>
    <trip id="truck213" type="truck_truck" depart="2280.06" departLane="best" from="-1222879914#0" to="283621822#0"/>
    <trip id="truck214" type="truck_truck" depart="2290.77" departLane="best" from="424799828#1" to="51049946#3"/>
    <trip id="truck215" type="truck_truck" depart="2301.47" departLane="best" from="12134222#2" to="-784598050#0"/>
    <trip id="truck217" type="truck_truck" depart="2322.88" departLane="best" from="-194358833#1" to="12140627#1"/>
    <trip id="truck218" type="truck_truck" depart="2333.58" departLane="best" from="1222833882#1" to="-279870835#3"/>
    <trip id="truck219" type="truck_truck" depart="2344.29" departLane="best" from="-32118998#3" to="1222833876#0"/>
    <trip id="truck220" type="truck_truck" depart="2354.99" departLane="best" from="484842173" to="35920555#1"/>
    <trip id="truck221" type="truck_truck" depart="2365.70" departLane="best" from="484953512" to="784599710"/>
    <trip id="truck223" type="truck_truck" depart="2387.11" departLane="best" from="388533144#1" to="1052604215"/>
    <trip id="truck225" type="truck_truck" depart="2408.52" departLane="best" from="-262962065#2" to="-32121049#0"/>
    <trip id="truck226" type="truck_truck" depart="2419.22" departLane="best" from="-450827405#1" to="264351493#5"/>
    <trip id="truck228" type="truck_truck" depart="2440.63" departLane="best" from="-858153863#1" to="1052604215"/>
    <trip id="truck229" type="truck_truck" depart="2451.33" departLane="best" from="32119915#4" to="-12202018"/>
    <trip id="truck230" type="truck_truck" depart="2462.04" departLane="best" from="62646499#2" to="264351493#5"/>
    <trip id="truck231" type="truck_truck" depart="2472.74" departLane="best" from="62203497#1" to="55179414#1"/>
    <trip id="truck232" type="truck_truck" depart="2483.45" departLane="best" from="12117702#1" to="450844982#1"/>
    <trip id="truck233" type="truck_truck" depart="2494.15" departLane="best" from="1222839571#0" to="63060727#1"/>
    <trip id="truck234" type="truck_truck" depart="2504.86" departLane="best" from="450695475#0" to="903721719#2"/>
    <trip id="truck236" type="truck_truck" depart="2526.26" departLane="best" from="-194358833#1" to="12140627#2"/>
    <trip id="truck237" type="truck_truck" depart="2536.97" departLane="best" from="357338487#5" to="104526265#0"/>
    <trip id="truck238" type="truck_truck" depart="2547.67" departLane="best" from="450844979#0" to="424080772#0"/>
    <trip id="truck240" type="truck_truck" depart="2569.08" departLane="best" from="-262962058#0" to="49991660#0"/>
    <trip id="truck241" type="truck_truck" depart="2579.79" departLane="best" from="-858153863#3" to="262962068#1"/>
    <trip id="truck242" type="truck_truck" depart="2590.49" departLane="best" from="357338497#2" to="556958057#1"/>
    <trip id="truck246" type="truck_truck" depart="2633.31" departLane="best" from="424080772#0" to="424801341#0"/>
    <trip id="truck247" type="truck_truck" depart="2644.01" departLane="best" departSpeed="max" from="262962066#0" to="858153862#3"/>
    <trip id="truck248" type="truck_truck" depart="2654.72" departLane="best" from="-12189045#1" to="388533657"/>
    <trip id="truck249" type="truck_truck" depart="2665.42" departLane="best" from="424080768#1" to="50033060#5"/>
    <trip id="truck250" type="truck_truck" depart="2676.13" departLane="best" departSpeed="max" from="59435515#0" to="51049946#3"/>
    <trip id="truck252" type="truck_truck" depart="2697.54" departLane="best" from="62646499#2" to="903721719#1"/>
    <trip id="truck253" type="truck_truck" depart="2708.24" departLane="best" from="450844979#0" to="-1222839571#1"/>
    <trip id="truck254" type="truck_truck" depart="2718.95" departLane="best" from="288513230#0" to="35920555#1"/>
    <trip id="truck256" type="truck_truck" depart="2740.35" departLane="best" departSpeed="max" from="42706874#0" to="62623959#2"/>
    <trip id="truck257" type="truck_truck" depart="2751.06" departLane="best" from="-1222879894#0" to="484842174"/>
    <trip id="truck258" type="truck_truck" depart="2761.76" departLane="best" from="12134222#4" to="12189453#0"/>
    <trip id="truck259" type="truck_truck" depart="2772.47" departLane="best" from="424769177" to="-30953025#0"/>
    <trip id="truck260" type="truck_truck" depart="2783.17" departLane="best" from="34685684#2" to="484842168#3"/>
    <trip id="truck262" type="truck_truck" depart="2804.58" departLane="best" from="424080772#1" to="1222879917#0"/>
    <trip id="truck263" type="truck_truck" depart="2815.29" departLane="best" departSpeed="max" from="62634019" to="388533144#8"/>
    <trip id="truck264" type="truck_truck" depart="2825.99" departLane="best" from="-450827405#1" to="1222839579"/>
    <trip id="truck265" type="truck_truck" depart="2836.70" departLane="best" from="12189453#1" to="357338487#10"/>
    <trip id="truck266" type="truck_truck" depart="2847.40" departLane="best" from="388533657" to="1222833887#0"/>
    <trip id="truck267" type="truck_truck" depart="2858.10" departLane="best" from="-264351493#2" to="1048465689#0"/>
    <trip id="truck268" type="truck_truck" depart="2868.81" departLane="best" from="858153862#6" to="388533143#1"/>
    <trip id="truck269" type="truck_truck" depart="2879.51" departLane="best" from="1020856085#0" to="32119915#1"/>
    <trip id="truck271" type="truck_truck" depart="2900.92" departLane="best" from="-1222879894#1" to="357338487#9"/>
    <trip id="truck272" type="truck_truck" depart="2911.63" departLane="best" from="388533145#5" to="357338497#3"/>
    <trip id="truck273" type="truck_truck" depart="2922.33" departLane="best" from="424080773#0" to="50033054#2"/>
    <trip id="truck274" type="truck_truck" depart="2933.04" departLane="best" from="388533145#1" to="62623959#2"/>
    <trip id="truck276" type="truck_truck" depart="2954.45" departLane="best" from="450844953#1" to="-279870835#3"/>
    <trip id="truck278" type="truck_truck" depart="2975.85" departLane="best" departSpeed="max" from="32118650" to="858153862#4"/>
    <trip id="truck279" type="truck_truck" depart="2986.56" departLane="best" departSpeed="max" from="32118650" to="62646494#1"/>
    <trip id="truck280" type="truck_truck" depart="2997.26" departLane="best" from="-556958057#0" to="1120549356#0"/>
    <trip id="truck281" type="truck_truck" depart="3007.97" departLane="best" from="55179414#1" to="137364609#5"/>
    <trip id="truck283" type="truck_truck" depart="3029.38" departLane="best" from="-12189045#1" to="32118998#4"/>
    <trip id="truck284" type="truck_truck" depart="3040.08" departLane="best" from="450844939#1" to="-858153863#1"/>
    <trip id="truck285" type="truck_truck" depart="3050.79" departLane="best" departSpeed="max" from="1222833868#0" to="484842168#3"/>
    <trip id="truck286" type="truck_truck" depart="3061.49" departLane="best" from="12134222#4" to="-30953025#2"/>
    <trip id="truck287" type="truck_truck" depart="3072.19" departLane="best" from="424801336#0" to="34685685"/>
    <trip id="truck288" type="truck_truck" depart="3082.90" departLane="best" from="-55179413#2" to="63060727#1"/>
    <trip id="truck289" type="truck_truck" depart="3093.60" departLane="best" from="30953025#3" to="104526265#0"/>
    <trip id="truck290" type="truck_truck" depart="3104.31" departLane="best" from="-903721719#0" to="-262962058#0"/>
    <trip id="truck291" type="truck_truck" depart="3115.01" departLane="best" from="-55179413#2" to="62623987#0"/>
    <trip id="truck292" type="truck_truck" depart="3125.72" departLane="best" from="288513230#0" to="59435515#6"/>
    <trip id="truck294" type="truck_truck" depart="3147.13" departLane="best" from="784598050#1" to="1222833882#0"/>
    <trip id="truck295" type="truck_truck" depart="3157.83" departLane="best" from="450844973#0" to="424801341#0"/>
    <trip id="truck296" type="truck_truck" depart="3168.54" departLane="best" from="1222839571#0" to="-30953025#0"/>
    <trip id="truck297" type="truck_truck" depart="3179.24" departLane="best" from="-784599711" to="51049946#2"/>
    <trip id="truck298" type="truck_truck" depart="3189.94" departLane="best" from="1222161131#1" to="1222833869#2"/>